<?xml version="1.0" encoding="UTF-8"?>

<!-- generated on 2025-05-13 17:08:43.277722 by osmWebWizard.py v1_22_0+0002-63e50f52594
<configuration>
    <net-file value="C:\Users\Guy\Sumo\2025-05-13-17-08-38\osm.net.xml.gz"/>
    <output-trip-file value="C:\Users\Guy\Sumo\2025-05-13-17-08-38\osm.passenger.trips.xml"/>
    <route-file value="C:\Users\Guy\Sumo\2025-05-13-17-08-38\osm.passenger.rou.xml"/>
    <prefix value="veh"/>
    <trip-attributes value="departLane=&quot;best&quot;"/>
    <fringe-start-attributes value="departSpeed=&quot;max&quot;"/>
    <vehicle-class value="passenger"/>
    <lanes value="True"/>
    <fringe-factor value="5"/>
    <allow-fringe.min-length value="1000.0"/>
    <via-edge-types value="highway.motorway,highway.motorway_link,highway.trunk_link,highway.primary_link,highway.secondary_link,highway.tertiary_link"/>
    <min-distance value="300.0"/>
    <min-distance.fringe value="10.0"/>
    <remove-loops value="True"/>
    <validate value="True"/>
    <insertion-density value="12.0"/>
</configuration>
-->

<!-- generated on 2025-05-13 17:08:43 by Eclipse SUMO duarouter Version 1.22.0
<duarouterConfiguration xmlns:xsi="http://www.w3.org/2001/XMLSchema-instance" xsi:noNamespaceSchemaLocation="http://sumo.dlr.de/xsd/duarouterConfiguration.xsd">

    <input>
        <net-file value="C:\Users\Guy\Sumo\2025-05-13-17-08-38\osm.net.xml.gz"/>
        <route-files value="C:\Users\Guy\Sumo\2025-05-13-17-08-38\osm.passenger.trips.xml"/>
    </input>

    <output>
        <output-file value="C:\Users\Guy\Sumo\2025-05-13-17-08-38\osm.passenger.trips.xml.tmp"/>
        <alternatives-output value="NUL"/>
        <write-trips value="true"/>
    </output>

    <processing>
        <remove-loops value="true"/>
    </processing>

    <time>
        <begin value="0.0"/>
        <end value="3600.0"/>
    </time>

    <report>
        <no-warnings value="true"/>
        <ignore-errors value="true"/>
        <no-step-log value="true"/>
    </report>

</duarouterConfiguration>
-->

<routes xmlns:xsi="http://www.w3.org/2001/XMLSchema-instance" xsi:noNamespaceSchemaLocation="http://sumo.dlr.de/xsd/routes_file.xsd">
    <vType id="veh_passenger" vClass="passenger"/>
    <trip id="veh1" type="veh_passenger" depart="0.00" departLane="best" departSpeed="max" from="1053293278" to="1052978864"/>
    <trip id="veh2" type="veh_passenger" depart="0.00" departLane="best" from="61909579" to="499618162"/>
    <trip id="veh9" type="veh_passenger" depart="0.00" departLane="best" from="995957799" to="1103284966"/>
    <trip id="veh12" type="veh_passenger" depart="0.00" departLane="best" from="62031880#2" to="62030616#3"/>
    <trip id="veh13" type="veh_passenger" depart="0.00" departLane="best" from="28093567" to="995957799"/>
    <trip id="veh16" type="veh_passenger" depart="0.00" departLane="best" from="894991731#1" to="310764734#0"/>
    <trip id="veh18" type="veh_passenger" depart="0.00" departLane="best" from="-398302111#0" to="1052978873#0"/>
    <trip id="veh19" type="veh_passenger" depart="0.00" departLane="best" departSpeed="max" from="-62031567" to="1053256445#2"/>
    <trip id="veh22" type="veh_passenger" depart="0.00" departLane="best" departSpeed="max" from="1053293278" to="978155086"/>
    <trip id="veh24" type="veh_passenger" depart="0.00" departLane="best" from="-980069998" to="62030616#3"/>
    <trip id="veh26" type="veh_passenger" depart="4.75" departLane="best" departSpeed="max" from="998108181" to="398302096#0"/>
    <trip id="veh27" type="veh_passenger" depart="2.24" departLane="best" departSpeed="max" from="307104419#0" to="53440971"/>
    <trip id="veh29" type="veh_passenger" depart="3.22" departLane="best" from="1053256434#0" to="-135409711"/>
    <trip id="veh30" type="veh_passenger" depart="4.71" departLane="best" departSpeed="max" from="906208228" to="1087341443"/>
    <trip id="veh31" type="veh_passenger" depart="2.20" departLane="best" from="398302096#1" to="1228092338"/>
    <trip id="veh33" type="veh_passenger" depart="2.18" departLane="best" departSpeed="max" from="1053293278" to="1052978883"/>
    <trip id="veh34" type="veh_passenger" depart="2.67" departLane="best" departSpeed="max" from="307104419#0" to="1053096531#1"/>
    <trip id="veh36" type="veh_passenger" depart="269.65" departLane="best" from="998255417" to="232369110#5"/>
    <trip id="veh37" type="veh_passenger" depart="277.14" departLane="best" departSpeed="max" from="-61832159" to="-1362822465"/>
    <trip id="veh38" type="veh_passenger" depart="284.63" departLane="best" departSpeed="max" from="-62101832" to="35011908#1"/>
    <trip id="veh39" type="veh_passenger" depart="292.12" departLane="best" departSpeed="max" from="62207648" to="132312833#1"/>
    <trip id="veh41" type="veh_passenger" depart="307.10" departLane="best" departSpeed="max" from="998108181" to="232803344#0"/>
    <trip id="veh42" type="veh_passenger" depart="314.59" departLane="best" from="-1293512905" to="62029623#1"/>
    <trip id="veh44" type="veh_passenger" depart="329.57" departLane="best" departSpeed="max" from="1053293278" to="398302096#0"/>
    <trip id="veh46" type="veh_passenger" depart="344.55" departLane="best" departSpeed="max" from="198439996" to="983017495#1"/>
    <trip id="veh47" type="veh_passenger" depart="352.04" departLane="best" departSpeed="max" from="906208228" to="1053096531#1"/>
    <trip id="veh50" type="veh_passenger" depart="374.51" departLane="best" from="1087341449" to="36333654#0"/>
    <trip id="veh51" type="veh_passenger" depart="382.00" departLane="best" departSpeed="max" from="32935452" to="-499618162"/>
    <trip id="veh52" type="veh_passenger" depart="389.50" departLane="best" from="62031348" to="232803348"/>
    <trip id="veh55" type="veh_passenger" depart="411.97" departLane="best" departSpeed="max" from="-132312833#1" to="978155083"/>
    <trip id="veh56" type="veh_passenger" depart="419.46" departLane="best" departSpeed="max" from="906208228" to="65372204#0"/>
    <trip id="veh57" type="veh_passenger" depart="426.95" departLane="best" from="1103284983" to="-186397553"/>
    <trip id="veh59" type="veh_passenger" depart="441.93" departLane="best" from="-499618162" to="223430128"/>
    <trip id="veh60" type="veh_passenger" depart="449.42" departLane="best" from="32928501#1" to="62101832"/>
    <trip id="veh66" type="veh_passenger" depart="494.36" departLane="best" departSpeed="max" from="998108181" to="-398302116#0"/>
    <trip id="veh67" type="veh_passenger" depart="501.85" departLane="best" departSpeed="max" from="186621919#0" to="232369123#0"/>
    <trip id="veh68" type="veh_passenger" depart="509.34" departLane="best" departSpeed="max" from="1173061871" to="310764734#0"/>
    <trip id="veh70" type="veh_passenger" depart="524.32" departLane="best" departSpeed="max" from="-36333654#2" to="356568233"/>
    <trip id="veh71" type="veh_passenger" depart="531.81" departLane="best" from="1053256434#0" to="925960106"/>
    <trip id="veh74" type="veh_passenger" depart="554.28" departLane="best" from="980069998" to="307104423#1"/>
    <trip id="veh75" type="veh_passenger" depart="561.77" departLane="best" from="223430126#0" to="62208063"/>
    <trip id="veh76" type="veh_passenger" depart="569.26" departLane="best" from="62031880#2" to="-887831275#1"/>
    <trip id="veh77" type="veh_passenger" depart="576.75" departLane="best" departSpeed="max" from="-62031567" to="1362822462"/>
    <trip id="veh79" type="veh_passenger" depart="591.73" departLane="best" departSpeed="max" from="61907537" to="499618161"/>
    <trip id="veh80" type="veh_passenger" depart="599.22" departLane="best" departSpeed="max" from="998108181" to="-320154337#0"/>
    <trip id="veh84" type="veh_passenger" depart="629.18" departLane="best" departSpeed="max" from="186621919#0" to="816920937"/>
    <trip id="veh86" type="veh_passenger" depart="644.17" departLane="best" from="998255418#0" to="67501896#0"/>
    <trip id="veh87" type="veh_passenger" depart="651.66" departLane="best" from="995957809#0" to="978155082"/>
    <trip id="veh89" type="veh_passenger" depart="666.64" departLane="best" from="232369110#0" to="-995962376"/>
    <trip id="veh90" type="veh_passenger" depart="674.13" departLane="best" departSpeed="max" from="1053293278" to="62208063"/>
    <trip id="veh92" type="veh_passenger" depart="689.11" departLane="best" departSpeed="max" from="307104419#0" to="62029498#1"/>
    <trip id="veh93" type="veh_passenger" depart="696.60" departLane="best" departSpeed="max" from="-79488792" to="1053293282"/>
    <trip id="veh94" type="veh_passenger" depart="704.09" departLane="best" from="995957809#0" to="310764734#0"/>
    <trip id="veh96" type="veh_passenger" depart="719.07" departLane="best" from="232369131" to="816920937"/>
    <trip id="veh97" type="veh_passenger" depart="726.56" departLane="best" departSpeed="max" from="-79488792" to="984743043"/>
    <trip id="veh98" type="veh_passenger" depart="734.05" departLane="best" from="398302111#0" to="-79489344#1"/>
    <trip id="veh99" type="veh_passenger" depart="741.54" departLane="best" departSpeed="max" from="325275079" to="499618162"/>
    <trip id="veh101" type="veh_passenger" depart="756.52" departLane="best" from="925960105#0" to="1052978883"/>
    <trip id="veh104" type="veh_passenger" depart="778.99" departLane="best" departSpeed="max" from="249946390#0" to="978155086"/>
    <trip id="veh105" type="veh_passenger" depart="786.48" departLane="best" from="1052978877#0" to="62029498#0"/>
    <trip id="veh107" type="veh_passenger" depart="801.46" departLane="best" departSpeed="max" from="440874865" to="1053293282"/>
    <trip id="veh108" type="veh_passenger" depart="808.95" departLane="best" from="1103284986" to="62101770#0"/>
    <trip id="veh109" type="veh_passenger" depart="816.44" departLane="best" departSpeed="max" from="-36333654#2" to="214454159"/>
    <trip id="veh110" type="veh_passenger" depart="823.93" departLane="best" departSpeed="max" from="1053293278" to="978155083"/>
    <trip id="veh111" type="veh_passenger" depart="831.42" departLane="best" from="906208235#0" to="893962218"/>
    <trip id="veh113" type="veh_passenger" depart="846.40" departLane="best" from="816920936" to="61908083#0"/>
    <trip id="veh114" type="veh_passenger" depart="853.89" departLane="best" departSpeed="max" from="32935452" to="995957809#2"/>
    <trip id="veh115" type="veh_passenger" depart="861.38" departLane="best" from="398302096#0" to="-1087341448"/>
    <trip id="veh116" type="veh_passenger" depart="868.87" departLane="best" from="65206835#1" to="1053293282"/>
    <trip id="veh117" type="veh_passenger" depart="876.36" departLane="best" from="-398302111#1" to="1052978873#0"/>
    <trip id="veh122" type="veh_passenger" depart="913.82" departLane="best" from="232369110#3" to="925960106"/>
    <trip id="veh123" type="veh_passenger" depart="921.31" departLane="best" from="877946040#0" to="232803346"/>
    <trip id="veh125" type="veh_passenger" depart="936.29" departLane="best" from="1053256433" to="62101938"/>
    <trip id="veh127" type="veh_passenger" depart="951.27" departLane="best" departSpeed="max" from="186621452#0" to="-1228092336"/>
    <trip id="veh128" type="veh_passenger" depart="958.76" departLane="best" departSpeed="max" from="-36333654#2" to="893969769"/>
    <trip id="veh129" type="veh_passenger" depart="966.25" departLane="best" from="946022244" to="303736473#0"/>
    <trip id="veh130" type="veh_passenger" depart="973.74" departLane="best" from="816920936" to="310764734#0"/>
    <trip id="veh132" type="veh_passenger" depart="988.72" departLane="best" from="1103284983" to="906208237"/>
    <trip id="veh133" type="veh_passenger" depart="996.21" departLane="best" from="62208008" to="816920937"/>
    <trip id="veh134" type="veh_passenger" depart="1003.70" departLane="best" from="925960108" to="-995962375"/>
    <trip id="veh138" type="veh_passenger" depart="1033.66" departLane="best" departSpeed="max" from="-79488792" to="978155083"/>
    <trip id="veh139" type="veh_passenger" depart="1041.15" departLane="best" from="-186397553" to="62031567"/>
    <trip id="veh140" type="veh_passenger" depart="1048.64" departLane="best" departSpeed="max" from="1173061871" to="978155083"/>
    <trip id="veh141" type="veh_passenger" depart="1056.13" departLane="best" from="62208260#1" to="816920937"/>
    <trip id="veh142" type="veh_passenger" depart="1063.62" departLane="best" departSpeed="max" from="62207648" to="-32928501#0"/>
    <trip id="veh145" type="veh_passenger" depart="1086.09" departLane="best" from="-212364613" to="1053293282"/>
    <trip id="veh146" type="veh_passenger" depart="1093.58" departLane="best" from="-1362822463" to="-904178715"/>
    <trip id="veh147" type="veh_passenger" depart="1101.07" departLane="best" from="1103367369" to="816920937"/>
    <trip id="veh149" type="veh_passenger" depart="1116.05" departLane="best" departSpeed="max" from="998108181" to="232803347#1"/>
    <trip id="veh152" type="veh_passenger" depart="1138.52" departLane="best" from="995957802#1" to="1053256434#0"/>
    <trip id="veh154" type="veh_passenger" depart="1153.51" departLane="best" departSpeed="max" from="61907537" to="1087340313#0"/>
    <trip id="veh155" type="veh_passenger" depart="1161.00" departLane="best" from="32928501#2" to="232369110#5"/>
    <trip id="veh156" type="veh_passenger" depart="1168.49" departLane="best" from="132312834" to="310764734#0"/>
    <trip id="veh157" type="veh_passenger" depart="1175.98" departLane="best" departSpeed="max" from="1053293278" to="61910264"/>
    <trip id="veh161" type="veh_passenger" depart="1205.94" departLane="best" departSpeed="max" from="132262196" to="203280257#1"/>
    <trip id="veh162" type="veh_passenger" depart="1213.43" departLane="best" from="398302116#0" to="1087341447"/>
    <trip id="veh164" type="veh_passenger" depart="1228.41" departLane="best" departSpeed="max" from="132313003" to="1053293282"/>
    <trip id="veh165" type="veh_passenger" depart="1235.90" departLane="best" departSpeed="max" from="-62208212" to="132312833#1"/>
    <trip id="veh168" type="veh_passenger" depart="1258.37" departLane="best" from="1087341449" to="303736473#1"/>
    <trip id="veh170" type="veh_passenger" depart="1273.35" departLane="best" from="398302096#0" to="217326686"/>
    <trip id="veh171" type="veh_passenger" depart="1280.84" departLane="best" departSpeed="max" from="186621919#0" to="-995962376"/>
    <trip id="veh172" type="veh_passenger" depart="1288.33" departLane="best" from="223430126#0" to="906208237"/>
    <trip id="veh173" type="veh_passenger" depart="1295.82" departLane="best" from="62208008" to="-61914280"/>
    <trip id="veh176" type="veh_passenger" depart="1318.29" departLane="best" from="65372204#0" to="62081080"/>
    <trip id="veh177" type="veh_passenger" depart="1325.78" departLane="best" departSpeed="max" from="440874865" to="1052978864"/>
    <trip id="veh178" type="veh_passenger" depart="1333.27" departLane="best" from="978155088#0" to="-132313003"/>
    <trip id="veh179" type="veh_passenger" depart="1340.76" departLane="best" from="1053256444" to="217459577#0"/>
    <trip id="veh183" type="veh_passenger" depart="1370.72" departLane="best" from="62030615" to="62101938"/>
    <trip id="veh186" type="veh_passenger" depart="1393.19" departLane="best" departSpeed="max" from="249946390#0" to="-1376776497"/>
    <trip id="veh190" type="veh_passenger" depart="1423.16" departLane="best" from="925960106" to="-32928501#0"/>
    <trip id="veh193" type="veh_passenger" depart="1445.63" departLane="best" from="925960108" to="232369110#5"/>
    <trip id="veh194" type="veh_passenger" depart="1453.12" departLane="best" from="894991731#1" to="1053096531#1"/>
    <trip id="veh196" type="veh_passenger" depart="1468.10" departLane="best" from="62031880#0" to="232369123#1"/>
    <trip id="veh197" type="veh_passenger" depart="1475.59" departLane="best" departSpeed="max" from="-36333654#2" to="1053293282"/>
    <trip id="veh198" type="veh_passenger" depart="1483.08" departLane="best" departSpeed="max" from="1053293278" to="-1087341446"/>
    <trip id="veh201" type="veh_passenger" depart="1505.55" departLane="best" from="60543193#0" to="-198439996"/>
    <trip id="veh203" type="veh_passenger" depart="1520.53" departLane="best" from="1362822462" to="-995962375"/>
    <trip id="veh212" type="veh_passenger" depart="1587.94" departLane="best" departSpeed="max" from="1173061871" to="499618162"/>
    <trip id="veh214" type="veh_passenger" depart="1602.92" departLane="best" from="217459577#0" to="-398302116#0"/>
    <trip id="veh216" type="veh_passenger" depart="1617.90" departLane="best" departSpeed="max" from="132312836" to="307104423#1"/>
    <trip id="veh218" type="veh_passenger" depart="1632.88" departLane="best" departSpeed="max" from="-62208280#1" to="217326686"/>
    <trip id="veh219" type="veh_passenger" depart="1640.37" departLane="best" from="1053096531#0" to="-1087341448"/>
    <trip id="veh221" type="veh_passenger" depart="1655.35" departLane="best" from="62030615" to="65372204#0"/>
    <trip id="veh223" type="veh_passenger" depart="1670.34" departLane="best" from="925960107" to="1103284985"/>
    <trip id="veh224" type="veh_passenger" depart="1677.83" departLane="best" departSpeed="max" from="36333559" to="62208063"/>
    <trip id="veh225" type="veh_passenger" depart="1685.32" departLane="best" departSpeed="max" from="-132312833#1" to="-499618162"/>
    <trip id="veh227" type="veh_passenger" depart="1700.30" departLane="best" departSpeed="max" from="307104419#0" to="1052978849#0"/>
    <trip id="veh228" type="veh_passenger" depart="1707.79" departLane="best" from="53441117#0" to="62101938"/>
    <trip id="veh231" type="veh_passenger" depart="1730.26" departLane="best" from="65372204#0" to="984743043"/>
    <trip id="veh233" type="veh_passenger" depart="1745.24" departLane="best" from="-995957798" to="1228092338"/>
    <trip id="veh236" type="veh_passenger" depart="1767.71" departLane="best" departSpeed="max" from="-62031567" to="62101938"/>
    <trip id="veh238" type="veh_passenger" depart="1782.69" departLane="best" departSpeed="max" from="-62208063" to="995957809#0"/>
    <trip id="veh241" type="veh_passenger" depart="1805.16" departLane="best" from="232803345#0" to="1103284966"/>
    <trip id="veh245" type="veh_passenger" depart="1835.12" departLane="best" from="61908083#1" to="984743043"/>
    <trip id="veh246" type="veh_passenger" depart="1842.61" departLane="best" departSpeed="max" from="1053293278" to="62208280#1"/>
    <trip id="veh248" type="veh_passenger" depart="1857.59" departLane="best" from="186621452#1" to="62030617"/>
    <trip id="veh249" type="veh_passenger" depart="1865.08" departLane="best" departSpeed="max" from="1053293278" to="816920937"/>
    <trip id="veh251" type="veh_passenger" depart="1880.06" departLane="best" from="906208235#0" to="1052978883"/>
    <trip id="veh255" type="veh_passenger" depart="1910.02" departLane="best" from="1053096531#0" to="62208260#0"/>
    <trip id="veh256" type="veh_passenger" depart="1917.51" departLane="best" departSpeed="max" from="1173061871" to="893962218"/>
    <trip id="veh257" type="veh_passenger" depart="1925.01" departLane="best" from="1053256443" to="1053256445#0"/>
    <trip id="veh259" type="veh_passenger" depart="1939.99" departLane="best" from="-499618162" to="62029498#1"/>
    <trip id="veh260" type="veh_passenger" depart="1947.48" departLane="best" from="232369110#3" to="62101832"/>
    <trip id="veh262" type="veh_passenger" depart="1962.46" departLane="best" from="232369110#4" to="62208212"/>
    <trip id="veh266" type="veh_passenger" depart="1992.42" departLane="best" departSpeed="max" from="249946390#0" to="132312834"/>
    <trip id="veh271" type="veh_passenger" depart="2029.87" departLane="best" from="1058113692" to="-320154337#0"/>
    <trip id="veh273" type="veh_passenger" depart="2044.85" departLane="best" from="249946390#3" to="1053256444"/>
    <trip id="veh274" type="veh_passenger" depart="2052.34" departLane="best" from="995957811" to="307104423#0"/>
    <trip id="veh276" type="veh_passenger" depart="2067.32" departLane="best" from="904178715" to="223430128"/>
    <trip id="veh278" type="veh_passenger" depart="2082.30" departLane="best" from="217459577#0" to="203280257#2"/>
    <trip id="veh281" type="veh_passenger" depart="2104.77" departLane="best" departSpeed="max" from="65372218" to="1293512905"/>
    <trip id="veh282" type="veh_passenger" depart="2112.26" departLane="best" departSpeed="max" from="-36333654#2" to="35020135"/>
    <trip id="veh284" type="veh_passenger" depart="2127.24" departLane="best" departSpeed="max" from="307104419#0" to="1053293282"/>
    <trip id="veh287" type="veh_passenger" depart="2149.71" departLane="best" departSpeed="max" from="249946390#0" to="212364613"/>
    <trip id="veh288" type="veh_passenger" depart="2157.20" departLane="best" departSpeed="max" from="186621919#0" to="816920937"/>
    <trip id="veh289" type="veh_passenger" depart="2164.69" departLane="best" departSpeed="max" from="998108181" to="1053293282"/>
    <trip id="veh292" type="veh_passenger" depart="2187.17" departLane="best" from="1052978891" to="-995962375"/>
    <trip id="veh294" type="veh_passenger" depart="2202.15" departLane="best" from="982046992" to="-214454159"/>
    <trip id="veh295" type="veh_passenger" depart="2209.64" departLane="best" from="1053256432" to="212364613"/>
    <trip id="veh296" type="veh_passenger" depart="2217.13" departLane="best" departSpeed="max" from="325275079" to="1053293282"/>
    <trip id="veh297" type="veh_passenger" depart="2224.62" departLane="best" from="1053256435" to="61908083#2"/>
    <trip id="veh298" type="veh_passenger" depart="2232.11" departLane="best" from="53441117#1" to="214454159"/>
    <trip id="veh299" type="veh_passenger" depart="2239.60" departLane="best" departSpeed="max" from="62207648" to="32935728#2"/>
    <trip id="veh300" type="veh_passenger" depart="2247.09" departLane="best" from="-398302111#0" to="978155083"/>
    <trip id="veh302" type="veh_passenger" depart="2262.07" departLane="best" departSpeed="max" from="36333559" to="925960107"/>
    <trip id="veh303" type="veh_passenger" depart="2269.56" departLane="best" departSpeed="max" from="65372218" to="203280257#2"/>
    <trip id="veh304" type="veh_passenger" depart="2277.05" departLane="best" from="904178715" to="1053293282"/>
    <trip id="veh305" type="veh_passenger" depart="2284.54" departLane="best" from="62029623#1" to="307104423#1"/>
    <trip id="veh306" type="veh_passenger" depart="2292.03" departLane="best" from="1087341444" to="398302111#1"/>
    <trip id="veh310" type="veh_passenger" depart="2321.99" departLane="best" from="1103367366-AddedOffRampEdge" to="1052978884"/>
    <trip id="veh315" type="veh_passenger" depart="2359.44" departLane="best" from="217459579" to="398302116#1"/>
    <trip id="veh319" type="veh_passenger" depart="2389.40" departLane="best" departSpeed="max" from="440874865" to="816920937"/>
    <trip id="veh323" type="veh_passenger" depart="2419.36" departLane="best" from="1103367366-AddedOffRampEdge" to="995957794"/>
    <trip id="veh325" type="veh_passenger" depart="2434.35" departLane="best" departSpeed="max" from="998108181" to="40692032"/>
    <trip id="veh327" type="veh_passenger" depart="2449.33" departLane="best" from="1052978842" to="1103367366-AddedOffRampEdge"/>
    <trip id="veh328" type="veh_passenger" depart="2456.82" departLane="best" from="62030616#2" to="32935728#2"/>
    <trip id="veh329" type="veh_passenger" depart="2464.31" departLane="best" from="62030617" to="-995962374"/>
    <trip id="veh332" type="veh_passenger" depart="2486.78" departLane="best" departSpeed="max" from="-62208063" to="995957799"/>
    <trip id="veh333" type="veh_passenger" depart="2494.27" departLane="best" departSpeed="max" from="32935452" to="1052978877#0"/>
    <trip id="veh334" type="veh_passenger" depart="2501.76" departLane="best" from="1123351137" to="307104419#1"/>
    <trip id="veh338" type="veh_passenger" depart="2531.72" departLane="best" departSpeed="max" from="1053293278" to="67501896#0"/>
    <trip id="veh339" type="veh_passenger" depart="2539.21" departLane="best" from="995957812" to="1052978883"/>
    <trip id="veh340" type="veh_passenger" depart="2546.70" departLane="best" from="978155085" to="232369110#4"/>
    <trip id="veh341" type="veh_passenger" depart="2554.19" departLane="best" departSpeed="max" from="1053293278" to="62208212"/>
    <trip id="veh349" type="veh_passenger" depart="2614.11" departLane="best" from="62029498#0" to="61908083#1"/>
    <trip id="veh351" type="veh_passenger" depart="2629.09" departLane="best" departSpeed="max" from="998108181" to="230743878"/>
    <trip id="veh354" type="veh_passenger" depart="2651.56" departLane="best" departSpeed="max" from="906208228" to="203280257#2"/>
    <trip id="veh355" type="veh_passenger" depart="2659.05" departLane="best" departSpeed="max" from="249946390#0" to="214454159"/>
    <trip id="veh358" type="veh_passenger" depart="2681.52" departLane="best" from="62029498#1" to="995957794"/>
    <trip id="veh359" type="veh_passenger" depart="2689.02" departLane="best" departSpeed="max" from="1173061871" to="60543193#0"/>
    <trip id="veh360" type="veh_passenger" depart="2696.51" departLane="best" departSpeed="max" from="36333559" to="816920937"/>
    <trip id="veh361" type="veh_passenger" depart="2704.00" departLane="best" from="886713373" to="816920937"/>
    <trip id="veh364" type="veh_passenger" depart="2726.47" departLane="best" from="904178717" to="-135409711"/>
    <trip id="veh365" type="veh_passenger" depart="2733.96" departLane="best" from="32928501#1" to="356568233"/>
    <trip id="veh366" type="veh_passenger" depart="2741.45" departLane="best" from="978155082" to="998255417"/>
    <trip id="veh368" type="veh_passenger" depart="2756.43" departLane="best" departSpeed="max" from="-62031567" to="36333654#0"/>
    <trip id="veh369" type="veh_passenger" depart="2763.92" departLane="best" from="904178717" to="203280257#2"/>
    <trip id="veh371" type="veh_passenger" depart="2778.90" departLane="best" from="-217459570" to="62208212"/>
    <trip id="veh374" type="veh_passenger" depart="2801.37" departLane="best" from="-925960108" to="-217459570"/>
    <trip id="veh376" type="veh_passenger" depart="2816.35" departLane="best" from="1053096531#1" to="925960108"/>
    <trip id="veh378" type="veh_passenger" depart="2831.33" departLane="best" from="1053256446" to="1053096531#1"/>
    <trip id="veh381" type="veh_passenger" depart="2853.80" departLane="best" from="1123351137" to="203280257#2"/>
    <trip id="veh382" type="veh_passenger" depart="2861.29" departLane="best" departSpeed="max" from="1173061871" to="310764734#0"/>
    <trip id="veh386" type="veh_passenger" depart="2891.25" departLane="best" from="232369110#0" to="1052978876#0"/>
    <trip id="veh387" type="veh_passenger" depart="2898.74" departLane="best" from="307104419#1" to="310764734#0"/>
    <trip id="veh388" type="veh_passenger" depart="2906.23" departLane="best" departSpeed="max" from="998108181" to="1053293282"/>
    <trip id="veh389" type="veh_passenger" depart="2913.72" departLane="best" departSpeed="max" from="1053293278" to="307104423#1"/>
    <trip id="veh393" type="veh_passenger" depart="2943.68" departLane="best" from="1087341443" to="62208260#1"/>
    <trip id="veh394" type="veh_passenger" depart="2951.18" departLane="best" from="32928501#2" to="1103284986"/>
    <trip id="veh396" type="veh_passenger" depart="2966.16" departLane="best" from="398302109" to="79488792"/>
    <trip id="veh397" type="veh_passenger" depart="2973.65" departLane="best" departSpeed="max" from="347873170" to="906679712"/>
    <trip id="veh400" type="veh_passenger" depart="2996.12" departLane="best" from="1087341448" to="62031880#1"/>
    <trip id="veh401" type="veh_passenger" depart="3003.61" departLane="best" from="-995962374" to="-398302116#0"/>
    <trip id="veh403" type="veh_passenger" depart="3018.59" departLane="best" departSpeed="max" from="249946390#0" to="925960108"/>
    <trip id="veh406" type="veh_passenger" depart="3041.06" departLane="best" departSpeed="max" from="61907537" to="995957803"/>
    <trip id="veh407" type="veh_passenger" depart="3048.55" departLane="best" from="995957809#0" to="62208280#1"/>
    <trip id="veh408" type="veh_passenger" depart="3056.04" departLane="best" departSpeed="max" from="132262196" to="62208212"/>
    <trip id="veh410" type="veh_passenger" depart="3071.02" departLane="best" departSpeed="max" from="65372218" to="1052978873#0"/>
    <trip id="veh412" type="veh_passenger" depart="3086.00" departLane="best" departSpeed="max" from="307104419#0" to="940538910"/>
    <trip id="veh413" type="veh_passenger" depart="3093.49" departLane="best" departSpeed="max" from="1053256433" to="-198439996"/>
    <trip id="veh414" type="veh_passenger" depart="3100.98" departLane="best" departSpeed="max" from="65372218" to="925960107"/>
    <trip id="veh416" type="veh_passenger" depart="3115.96" departLane="best" from="1103284973" to="230743878"/>
    <trip id="veh417" type="veh_passenger" depart="3123.45" departLane="best" departSpeed="max" from="-62208280#1" to="214454159"/>
    <trip id="veh418" type="veh_passenger" depart="3130.94" departLane="best" from="983017495#1" to="132312833#1"/>
    <trip id="veh421" type="veh_passenger" depart="3153.41" departLane="best" from="232369110#3" to="132262199"/>
    <trip id="veh423" type="veh_passenger" depart="3168.39" departLane="best" from="132262200" to="203280257#2"/>
    <trip id="veh425" type="veh_passenger" depart="3183.37" departLane="best" departSpeed="max" from="-62031567" to="53440971"/>
    <trip id="veh427" type="veh_passenger" depart="3198.35" departLane="best" from="132262194#1" to="-1228092340#1"/>
    <trip id="veh428" type="veh_passenger" depart="3205.85" departLane="best" from="1052978843" to="398302111#0"/>