<?xml version="1.0" encoding="UTF-8"?>

<!-- generated on 2025-05-18 23:17:40.862362 by randomTrips.py v1_22_0+0002-63e50f52594
<configuration>
    <net-file value="osm.net.xml"/>
    <output-trip-file value="high_traffic.trips.xml"/>
    <prefix value="veh"/>
    <min-distance value="1000.0"/>
    <validate value="True"/>
    <end value="2.0"/>
    <insertion-density value="5000.0"/>
</configuration>
-->

<!-- generated on 2025-05-18 23:17:40 by Eclipse SUMO duarouter Version 1.22.0
<duarouterConfiguration xmlns:xsi="http://www.w3.org/2001/XMLSchema-instance" xsi:noNamespaceSchemaLocation="http://sumo.dlr.de/xsd/duarouterConfiguration.xsd">

    <input>
        <net-file value="osm.net.xml"/>
        <route-files value="high_traffic.trips.xml"/>
    </input>

    <output>
        <output-file value="high_traffic.trips.xml.tmp"/>
        <alternatives-output value="NUL"/>
        <write-trips value="true"/>
    </output>

    <time>
        <begin value="0.0"/>
        <end value="2.0"/>
    </time>

    <report>
        <no-warnings value="true"/>
        <ignore-errors value="true"/>
        <no-step-log value="true"/>
    </report>

</duarouterConfiguration>
-->

<routes xmlns:xsi="http://www.w3.org/2001/XMLSchema-instance" xsi:noNamespaceSchemaLocation="http://sumo.dlr.de/xsd/routes_file.xsd">
    <trip id="veh0" depart="0.00" from="420892265#0" to="-46520921#4"/>
    <trip id="veh1" depart="0.00" from="1308875366#2" to="458166897#7"/>
    <trip id="veh2" depart="0.01" from="-421851201#2" to="1211049195#0"/>
    <trip id="veh3" depart="0.01" from="499172074#16" to="458180199#0"/>
    <trip id="veh4" depart="0.02" from="1308875367#0" to="46518740"/>
    <trip id="veh5" depart="0.02" from="584971503#0" to="542257430#0"/>
    <trip id="veh6" depart="0.03" from="226041012#3" to="1136391283#0"/>
    <trip id="veh7" depart="0.03" from="945384088#1" to="226041011#1"/>
    <trip id="veh8" depart="0.04" from="1043336433#0" to="1049841322#0"/>
    <trip id="veh9" depart="0.04" from="671208358#21" to="46522002#0"/>
    <trip id="veh10" depart="0.05" from="588157336#0" to="5670348"/>
    <trip id="veh11" depart="0.05" from="658583340#0" to="46579578#0"/>
    <trip id="veh12" depart="0.06" from="686125782#6" to="464516471#13"/>
    <trip id="veh13" depart="0.06" from="1030119891#0" to="1321771943#0"/>
    <trip id="veh14" depart="0.07" from="169267543#0" to="808190588#0"/>
    <trip id="veh15" depart="0.07" from="1165644579#0" to="5670348"/>
    <trip id="veh16" depart="0.08" from="1136460179#0" to="375165500#0"/>
    <trip id="veh17" depart="0.08" from="976050707#0" to="497165753#6"/>
    <trip id="veh18" depart="0.09" from="46240204#0" to="525729009#0"/>
    <trip id="veh19" depart="0.09" from="1320234485#0" to="-496986969#3"/>
    <trip id="veh20" depart="0.10" from="68674962#29" to="196116976#6"/>
    <trip id="veh21" depart="0.10" from="167922077#0" to="1376704198#6"/>
    <trip id="veh22" depart="0.11" from="46334594#6" to="167922077#0"/>
    <trip id="veh23" depart="0.11" from="420356173#0" to="1308875367#0"/>
    <trip id="veh24" depart="0.12" from="992603347" to="458180181#0"/>
    <trip id="veh25" depart="0.12" from="1040888764#0" to="-587355676#1"/>
    <trip id="veh26" depart="0.13" from="1051846230#0" to="496989355#0"/>
    <trip id="veh27" depart="0.13" from="1052631409#0" to="420892272#0"/>
    <trip id="veh28" depart="0.14" from="68674962#26" to="167922077#0"/>
    <trip id="veh29" depart="0.14" from="458177130#0" to="1198594028#0"/>
    <trip id="veh30" depart="0.15" from="803047267#0" to="686125781#8"/>
    <trip id="veh31" depart="0.15" from="46525065#3" to="1135614655#0"/>
    <trip id="veh32" depart="0.16" from="-36185649" to="808190577#0"/>
    <trip id="veh33" depart="0.16" from="68674962#32" to="814278019#0"/>
    <trip id="veh34" depart="0.17" from="1025734019#0" to="5672951#0"/>
    <trip id="veh35" depart="0.17" from="452322756#0" to="458180199#5"/>
    <trip id="veh36" depart="0.18" from="167922077#0" to="686125782#0"/>
    <trip id="veh37" depart="0.18" from="988977545#6" to="497251086#0"/>
    <trip id="veh38" depart="0.19" from="420899373" to="458180186#0"/>
    <trip id="veh39" depart="0.19" from="1320234485#0" to="710571392#3"/>
    <trip id="veh40" depart="0.20" from="686125782#0" to="1025734020#0"/>
    <trip id="veh41" depart="0.20" from="1352944235#0" to="505582406#0"/>
    <trip id="veh42" depart="0.21" from="1272613981" to="1106471568#0"/>
    <trip id="veh43" depart="0.21" from="814278021#0" to="464515890"/>
    <trip id="veh44" depart="0.22" from="448686048#0" to="569345502#3"/>
    <trip id="veh45" depart="0.22" from="1049845754#0" to="420892266#0"/>
    <trip id="veh46" depart="0.23" from="420892266#0" to="422298615#0"/>
    <trip id="veh47" depart="0.23" from="968513230#0" to="1049841322#3"/>
    <trip id="veh48" depart="0.24" from="686125782#6" to="1376935153#0"/>
    <trip id="veh49" depart="0.24" from="420892265#0" to="194926855#0"/>
    <trip id="veh50" depart="0.25" from="1376935153#0" to="743358445#2"/>
    <trip id="veh51" depart="0.25" from="420906743#0" to="671208358#3"/>
    <trip id="veh52" depart="0.26" from="460585328#11" to="-992603349"/>
    <trip id="veh53" depart="0.26" from="993383311" to="618990022#8"/>
    <trip id="veh54" depart="0.27" from="962831195" to="803047267#0"/>
    <trip id="veh55" depart="0.27" from="671208358#3" to="1136460181#0"/>
    <trip id="veh56" depart="0.28" from="456409017#3" to="127693103#0"/>
    <trip id="veh57" depart="0.28" from="420496090#0" to="1022822153#0"/>
    <trip id="veh58" depart="0.29" from="375165666#0" to="968513229#0"/>
    <trip id="veh59" depart="0.29" from="167922077#0" to="569345502#3"/>
    <trip id="veh60" depart="0.30" from="945384088#1" to="988977545#3"/>
    <trip id="veh61" depart="0.30" from="460585328#8" to="5670029#7"/>
    <trip id="veh62" depart="0.31" from="1135661892#0" to="195743336#0"/>
    <trip id="veh63" depart="0.31" from="962831195" to="464516471#4"/>
    <trip id="veh64" depart="0.32" from="458180199#2" to="5672036#3"/>
    <trip id="veh65" depart="0.32" from="1022822152#0" to="46482602#2"/>
    <trip id="veh67" depart="0.33" from="46521998#0" to="46579578#0"/>
    <trip id="veh68" depart="0.33" from="458180191#0" to="808190587#0"/>
    <trip id="veh69" depart="0.34" from="1222356566#0" to="5670029#10"/>
    <trip id="veh70" depart="0.34" from="196116976#6" to="5672149#0"/>
    <trip id="veh71" depart="0.35" from="992603347" to="988977545#6"/>
    <trip id="veh72" depart="0.35" from="167922077#0" to="808190584#3"/>
    <trip id="veh73" depart="0.36" from="46538371#0" to="968513230#0"/>
    <trip id="veh74" depart="0.36" from="499172074#4" to="-1320549615#1"/>
    <trip id="veh75" depart="0.37" from="511699176#0" to="812949647#3"/>
    <trip id="veh76" depart="0.37" from="1051744778#0" to="458180200#0"/>
    <trip id="veh77" depart="0.38" from="194920158#0" to="46522003#0"/>
    <trip id="veh78" depart="0.38" from="497165753#9" to="167922077#0"/>
    <trip id="veh79" depart="0.39" from="671208358#18" to="1037772010#0"/>
    <trip id="veh80" depart="0.39" from="420892266#0" to="194926854#0"/>
    <trip id="veh81" depart="0.40" from="-1320232776#1" to="5673461#7"/>
    <trip id="veh82" depart="0.40" from="497165756#3" to="167922076#0"/>
    <trip id="veh83" depart="0.41" from="5672464#0" to="458180199#7"/>
    <trip id="veh84" depart="0.41" from="1027189508" to="68674962#2"/>
    <trip id="veh85" depart="0.42" from="733667933" to="458180199#0"/>
    <trip id="veh87" depart="0.43" from="1124078898#0" to="1106470993#0"/>
    <trip id="veh88" depart="0.43" from="195743342#6" to="710571390#0"/>
    <trip id="veh89" depart="0.44" from="569345543#0" to="671208358#21"/>
    <trip id="veh90" depart="0.44" from="1135661892#0" to="808190579#0"/>
    <trip id="veh91" depart="0.45" from="618990022#0" to="68674962#17"/>
    <trip id="veh92" depart="0.45" from="-420899371" to="5671115#2"/>
    <trip id="veh93" depart="0.46" from="198924552#4" to="808190579#0"/>
    <trip id="veh94" depart="0.46" from="618990022#0" to="169267543#0"/>
    <trip id="veh95" depart="0.47" from="1320234482#0" to="573228989#0"/>
    <trip id="veh96" depart="0.47" from="-388696206#2" to="1207834765"/>
    <trip id="veh97" depart="0.48" from="497251086#0" to="397795464#0"/>
    <trip id="veh98" depart="0.48" from="968393479#0" to="458180193#6"/>
    <trip id="veh99" depart="0.49" from="963856064#0" to="1198594028#0"/>
    <trip id="veh100" depart="0.49" from="945384091#0" to="169267541#0"/>
    <trip id="veh101" depart="0.50" from="46522160#7" to="458180182#0"/>
    <trip id="veh102" depart="0.50" from="167922070#0" to="544549058"/>
    <trip id="veh103" depart="0.51" from="458180199#0" to="5670114#0"/>
    <trip id="veh104" depart="0.51" from="5672464#0" to="505778913#0"/>
    <trip id="veh105" depart="0.52" from="511699176#0" to="198924778#0"/>
    <trip id="veh106" depart="0.52" from="196116976#0" to="670988060#0"/>
    <trip id="veh107" depart="0.53" from="195743342#9" to="420496090#0"/>
    <trip id="veh108" depart="0.53" from="1106471567#0" to="420890025#0"/>
    <trip id="veh109" depart="0.54" from="835176553#0" to="511699184#0"/>
    <trip id="veh110" depart="0.54" from="-1087048475#1" to="195743209#0"/>
    <trip id="veh111" depart="0.55" from="448686048#0" to="710571391#0"/>
    <trip id="veh112" depart="0.55" from="569345543#0" to="1150705656#0"/>
    <trip id="veh113" depart="0.56" from="618990022#5" to="5672149#0"/>
    <trip id="veh114" depart="0.56" from="671208358#6" to="1025734022#0"/>
    <trip id="veh115" depart="0.57" from="5673323#0" to="5673461#3"/>
    <trip id="veh116" depart="0.57" from="1051744778#0" to="420892262"/>
    <trip id="veh117" depart="0.58" from="1198594027" to="873372086#0"/>
    <trip id="veh118" depart="0.58" from="458180188#0" to="-992603349"/>
    <trip id="veh119" depart="0.59" from="1376935153#0" to="670988060#0"/>
    <trip id="veh120" depart="0.59" from="511699179" to="968513230#0"/>
    <trip id="veh121" depart="0.60" from="46522000#0" to="835176553#0"/>
    <trip id="veh122" depart="0.60" from="710571392#0" to="46525065#0"/>
    <trip id="veh123" depart="0.61" from="5670874#0" to="458166897#7"/>
    <trip id="veh124" depart="0.61" from="658583340#3" to="458180199#2"/>
    <trip id="veh125" depart="0.62" from="496992868#0" to="194926847#0"/>
    <trip id="veh126" depart="0.62" from="1027189509#2" to="195743183#6"/>
    <trip id="veh127" depart="0.63" from="194920158#0" to="198595461#12"/>
    <trip id="veh128" depart="0.63" from="458180199#10" to="1106482765#2"/>
    <trip id="veh129" depart="0.64" from="1320549615#0" to="541350711#0"/>
    <trip id="veh130" depart="0.64" from="5670114#0" to="1024425029#0"/>
    <trip id="veh131" depart="0.65" from="420890028" to="1250866957#0"/>
    <trip id="veh132" depart="0.65" from="420892263#0" to="710571392#3"/>
    <trip id="veh133" depart="0.65" from="686125781#5" to="5673323#0"/>
    <trip id="veh134" depart="0.66" from="382740985#0" to="-1320232776#1"/>
    <trip id="veh135" depart="0.66" from="226041031" to="5672149#3"/>
    <trip id="veh136" depart="0.67" from="682360554#0" to="835176556#0"/>
    <trip id="veh137" depart="0.67" from="420892263#0" to="5672036#0"/>
    <trip id="veh138" depart="0.68" from="1308875367#0" to="1320232776#0"/>
    <trip id="veh139" depart="0.68" from="420899372#0" to="-46520921#4"/>
    <trip id="veh140" depart="0.69" from="420496091#3" to="1136460180#0"/>
    <trip id="veh141" depart="0.69" from="439933933" to="1106470993#0"/>
    <trip id="veh142" depart="0.70" from="496989355#3" to="-46520921#1"/>
    <trip id="veh143" depart="0.70" from="-835176553#2" to="375164212"/>
    <trip id="veh144" depart="0.71" from="1267505843#0" to="198924552#0"/>
    <trip id="veh145" depart="0.71" from="1376951512" to="1030119892#0"/>
    <trip id="veh146" depart="0.72" from="499172074#16" to="569345499#0"/>
    <trip id="veh147" depart="0.72" from="499172074#19" to="5672290#0"/>
    <trip id="veh148" depart="0.73" from="884400286#0" to="1211049195#0"/>
    <trip id="veh149" depart="0.73" from="-36185649" to="1135614655#0"/>
    <trip id="veh150" depart="0.74" from="1106470993#0" to="505582406#0"/>
    <trip id="veh151" depart="0.74" from="464515890" to="1308875367#0"/>
    <trip id="veh152" depart="0.75" from="1136952921#0" to="46522160#1"/>
    <trip id="veh153" depart="0.75" from="618990022#5" to="884400301#0"/>
    <trip id="veh154" depart="0.76" from="5670253#0" to="1027189508"/>
    <trip id="veh155" depart="0.76" from="542258060#0" to="496989355#0"/>
    <trip id="veh156" depart="0.77" from="1051734607#0" to="5673497#0"/>
    <trip id="veh157" depart="0.77" from="1080185968#0" to="968393479#3"/>
    <trip id="veh158" depart="0.78" from="671208358#6" to="584971503#0"/>
    <trip id="veh159" depart="0.78" from="1051744070#0" to="884400289#0"/>
    <trip id="veh160" depart="0.79" from="497165756#0" to="618990022#10"/>
    <trip id="veh161" depart="0.79" from="5670114#0" to="420892272#0"/>
    <trip id="veh162" depart="0.80" from="5672036#3" to="884400301#0"/>
    <trip id="veh163" depart="0.80" from="458180199#0" to="452322757#0"/>
    <trip id="veh164" depart="0.81" from="68674962#8" to="1376704198#0"/>
    <trip id="veh165" depart="0.81" from="438397345#0" to="46522160#3"/>
    <trip id="veh166" depart="0.82" from="375165666#0" to="-46520921#4"/>
    <trip id="veh167" depart="0.82" from="671208358#6" to="1198594030#0"/>
    <trip id="veh168" depart="0.83" from="5669664#0" to="194926854#0"/>
    <trip id="veh169" depart="0.83" from="-167922072#1" to="814278021#0"/>
    <trip id="veh170" depart="0.84" from="1030123278#0" to="5670114#0"/>
    <trip id="veh171" depart="0.84" from="458166897#10" to="5672752#0"/>
    <trip id="veh172" depart="0.85" from="542258060#0" to="497165756#6"/>
    <trip id="veh173" depart="0.85" from="542258061#0" to="195743342#9"/>
    <trip id="veh174" depart="0.86" from="465000799#0" to="439933933"/>
    <trip id="veh175" depart="0.86" from="458180194#0" to="420892263#0"/>
    <trip id="veh176" depart="0.87" from="5670029#0" to="194920158#5"/>
    <trip id="veh177" depart="0.87" from="456409017#0" to="5670197#0"/>
    <trip id="veh178" depart="0.88" from="965833822#4" to="458180188#0"/>
    <trip id="veh179" depart="0.88" from="195743166#0" to="1049888072"/>
    <trip id="veh180" depart="0.89" from="458180196#0" to="194926847#0"/>
    <trip id="veh181" depart="0.89" from="965833822#0" to="458180200#0"/>
    <trip id="veh182" depart="0.90" from="68674962#14" to="456409017#0"/>
    <trip id="veh183" depart="0.90" from="68674962#20" to="464516471#0"/>
    <trip id="veh184" depart="0.91" from="441405435#0" to="420894352#0"/>
    <trip id="veh185" depart="0.91" from="1201651434#0" to="1021047632#0"/>
    <trip id="veh186" depart="0.92" from="835176554#0" to="448686048#0"/>
    <trip id="veh187" depart="0.92" from="619280607#0" to="420281338#0"/>
    <trip id="veh188" depart="0.93" from="46443656#0" to="195743342#3"/>
    <trip id="veh189" depart="0.93" from="420906743#0" to="671208358#21"/>
    <trip id="veh190" depart="0.94" from="496989355#0" to="46522160#3"/>
    <trip id="veh191" depart="0.94" from="5672290#0" to="814278019#0"/>
    <trip id="veh192" depart="0.95" from="125479721#0" to="1267505842#0"/>
    <trip id="veh193" depart="0.95" from="505778913#0" to="1136391283#3"/>
    <trip id="veh194" depart="0.96" from="1174928402#0" to="1027189508"/>
    <trip id="veh195" depart="0.96" from="46521998#0" to="195743297#0"/>
    <trip id="veh196" depart="0.97" from="1320549615#0" to="543905773#0"/>
    <trip id="veh197" depart="0.97" from="5670029#0" to="420906755#0"/>
    <trip id="veh198" depart="0.97" from="505778913#0" to="808190584#3"/>
    <trip id="veh199" depart="0.98" from="420892269#0" to="458180198#0"/>
    <trip id="veh200" depart="0.98" from="499172074#0" to="714993623#0"/>
    <trip id="veh201" depart="0.99" from="5673117" to="46443656#3"/>
    <trip id="veh203" depart="1.00" from="835176555#0" to="458166897#22"/>
    <trip id="veh204" depart="1.00" from="198595461#0" to="1376951511#0"/>
    <trip id="veh205" depart="1.01" from="1040888764#0" to="884400289#3"/>
    <trip id="veh206" depart="1.01" from="670988060#0" to="464516471#10"/>
    <trip id="veh207" depart="1.02" from="441405436#0" to="497251086#2"/>
    <trip id="veh208" depart="1.02" from="226041028#0" to="226041006#3"/>
    <trip id="veh209" depart="1.03" from="511924053#0" to="671208358#15"/>
    <trip id="veh210" depart="1.03" from="195743183#6" to="814278018#0"/>
    <trip id="veh211" depart="1.04" from="618990022#10" to="458180199#5"/>
    <trip id="veh212" depart="1.04" from="420496091#3" to="458180184#0"/>
    <trip id="veh213" depart="1.05" from="1201651435#3" to="308322446#0"/>
    <trip id="veh214" depart="1.05" from="5673515#0" to="1222356565#0"/>
    <trip id="veh215" depart="1.06" from="460585328#0" to="808190576"/>
    <trip id="veh216" depart="1.06" from="420899373" to="542257430#0"/>
    <trip id="veh217" depart="1.07" from="1080185968#0" to="962831195"/>
    <trip id="veh218" depart="1.07" from="46525065#3" to="1376704196#0"/>
    <trip id="veh219" depart="1.08" from="1136391284#0" to="458180199#7"/>
    <trip id="veh220" depart="1.08" from="988977545#0" to="717625448#0"/>
    <trip id="veh221" depart="1.09" from="460585328#11" to="375165665"/>
    <trip id="veh222" depart="1.09" from="808190587#0" to="458177131#0"/>
    <trip id="veh223" depart="1.10" from="194926846#0" to="569345515#6"/>
    <trip id="veh224" depart="1.10" from="458180184#0" to="584971501"/>
    <trip id="veh226" depart="1.11" from="458180199#0" to="226041025#0"/>
    <trip id="veh227" depart="1.12" from="460585328#2" to="458180198#0"/>
    <trip id="veh228" depart="1.12" from="420908138#0" to="198595461#2"/>
    <trip id="veh229" depart="1.13" from="1201651437#0" to="542257430#0"/>
    <trip id="veh230" depart="1.13" from="464516471#2" to="1343181788#0"/>
    <trip id="veh231" depart="1.14" from="569345515#6" to="-5672752#3"/>
    <trip id="veh232" depart="1.14" from="5672760#0" to="542259076#0"/>
    <trip id="veh233" depart="1.15" from="618990022#0" to="375165666#0"/>
    <trip id="veh234" depart="1.15" from="511699176#0" to="584971501"/>
    <trip id="veh235" depart="1.16" from="968393479#0" to="458166897#10"/>
    <trip id="veh236" depart="1.16" from="46521994#0" to="686125781#5"/>
    <trip id="veh237" depart="1.17" from="68674962#23" to="420894352#0"/>
    <trip id="veh238" depart="1.17" from="458180192#0" to="420907903#0"/>
    <trip id="veh239" depart="1.18" from="5671115#2" to="420496091#0"/>
    <trip id="veh240" depart="1.18" from="499172074#8" to="1135661892#0"/>
    <trip id="veh241" depart="1.19" from="499172074#16" to="671208356#0"/>
    <trip id="veh242" depart="1.19" from="375165666#0" to="196117083#0"/>
    <trip id="veh243" depart="1.20" from="68674962#20" to="-511699179"/>
    <trip id="veh244" depart="1.20" from="808190584#3" to="988984235#0"/>
    <trip id="veh245" depart="1.21" from="5672954#0" to="420892271#0"/>
    <trip id="veh246" depart="1.21" from="1049888072" to="496992868#0"/>
    <trip id="veh247" depart="1.22" from="542258337#0" to="710571392#0"/>
    <trip id="veh248" depart="1.22" from="-584971501" to="569345535#0"/>
    <trip id="veh249" depart="1.23" from="195743211#0" to="36185649"/>
    <trip id="veh250" depart="1.23" from="226041025#0" to="465000799#0"/>
    <trip id="veh251" depart="1.24" from="497165756#6" to="420892262"/>
    <trip id="veh252" depart="1.24" from="1376935153#0" to="658583340#8"/>
    <trip id="veh253" depart="1.25" from="988977545#3" to="195743335#0"/>
    <trip id="veh254" depart="1.25" from="194920158#5" to="46334594#6"/>
    <trip id="veh255" depart="1.26" from="195743183#3" to="569345537#0"/>
    <trip id="veh257" depart="1.27" from="497258109#0" to="195743344#0"/>
    <trip id="veh258" depart="1.27" from="420904618#0" to="464516471#4"/>
    <trip id="veh260" depart="1.28" from="195743301#0" to="5672036#0"/>
    <trip id="veh261" depart="1.29" from="1198594026#0" to="1106471568#0"/>
    <trip id="veh262" depart="1.29" from="458180194#0" to="717634370#0"/>
    <trip id="veh263" depart="1.30" from="619280617#0" to="452322756#3"/>
    <trip id="veh264" depart="1.30" from="588157336#0" to="5672036#0"/>
    <trip id="veh265" depart="1.30" from="226041012#0" to="1059314985#0"/>
    <trip id="veh266" depart="1.31" from="962626218#0" to="1106482767#0"/>
    <trip id="veh267" depart="1.31" from="962831194" to="569345538#0"/>
    <trip id="veh268" depart="1.32" from="324118554#0" to="569345515#6"/>
    <trip id="veh269" depart="1.32" from="-195743152#1" to="458180193#6"/>
    <trip id="veh270" depart="1.33" from="619280607#0" to="812949647#3"/>
    <trip id="veh271" depart="1.33" from="1051745205#0" to="1343181788#0"/>
    <trip id="veh272" depart="1.34" from="46334594#6" to="727702632#0"/>
    <trip id="veh273" depart="1.34" from="619280612#0" to="717625447#0"/>
    <trip id="veh274" depart="1.35" from="1106482767#0" to="814278018#0"/>
    <trip id="veh275" depart="1.35" from="195743342#12" to="458166897#1"/>
    <trip id="veh276" depart="1.36" from="1049845754#0" to="68674962#26"/>
    <trip id="veh277" depart="1.36" from="511924053#0" to="5671574#0"/>
    <trip id="veh278" depart="1.37" from="5672752#0" to="1135661892#0"/>
    <trip id="veh279" depart="1.37" from="884400289#0" to="-496986969#3"/>
    <trip id="veh280" depart="1.38" from="35027229#0" to="420899373"/>
    <trip id="veh281" depart="1.38" from="884400286#0" to="671208358#12"/>
    <trip id="veh282" depart="1.39" from="458180199#7" to="965833822#0"/>
    <trip id="veh283" depart="1.39" from="1201651437#3" to="1061979013#0"/>
    <trip id="veh284" depart="1.40" from="671208358#3" to="420906755#0"/>
    <trip id="veh285" depart="1.40" from="1124078898#0" to="710571391#0"/>
    <trip id="veh286" depart="1.41" from="-1136952921#1" to="671208358#18"/>
    <trip id="veh287" depart="1.41" from="1117867040#1" to="1106471567#3"/>
    <trip id="veh288" depart="1.42" from="1376951511#0" to="1174928402#0"/>
    <trip id="veh289" depart="1.42" from="505778913#0" to="-420904618#1"/>
    <trip id="veh290" depart="1.43" from="-195743152#1" to="569345515#6"/>
    <trip id="veh291" depart="1.43" from="1174928402#0" to="1021065071#0"/>
    <trip id="veh292" depart="1.44" from="541350711#3" to="456409017#0"/>
    <trip id="veh293" depart="1.44" from="743358445#2" to="1027189507"/>
    <trip id="veh294" depart="1.45" from="1025734017#0" to="194926851#0"/>
    <trip id="veh295" depart="1.45" from="198595461#2" to="988977545#3"/>
    <trip id="veh296" depart="1.46" from="46522160#7" to="1049845754#0"/>
    <trip id="veh297" depart="1.46" from="499172074#16" to="5673461#3"/>
    <trip id="veh298" depart="1.47" from="5671115#0" to="127693103#3"/>
    <trip id="veh299" depart="1.47" from="420890029#0" to="1043336433#0"/>
    <trip id="veh300" depart="1.48" from="375165501#0" to="1135614655#0"/>
    <trip id="veh301" depart="1.48" from="658583340#8" to="1040888764#0"/>
    <trip id="veh302" depart="1.49" from="1049841322#3" to="5671115#5"/>
    <trip id="veh303" depart="1.49" from="198924552#0" to="1061979013#0"/>
    <trip id="veh306" depart="1.51" from="46522160#0" to="226041030"/>
    <trip id="veh307" depart="1.51" from="324118557#0" to="5672954#0"/>
    <trip id="veh308" depart="1.52" from="497258108#0" to="-420904618#1"/>
    <trip id="veh309" depart="1.52" from="169267543#0" to="1198594029#0"/>
    <trip id="veh310" depart="1.53" from="5670029#0" to="195743345#0"/>
    <trip id="veh311" depart="1.53" from="226041012#3" to="-1320290376#1"/>
    <trip id="veh312" depart="1.54" from="5672951#0" to="127693103#3"/>
    <trip id="veh313" depart="1.54" from="420892263#0" to="226041013#0"/>
    <trip id="veh314" depart="1.55" from="569345518#0" to="46443656#0"/>
    <trip id="veh315" depart="1.55" from="1030123278#0" to="1021065071#0"/>
    <trip id="veh316" depart="1.56" from="511699175#0" to="455125048#0"/>
    <trip id="veh317" depart="1.56" from="420905130#0" to="194926847#0"/>
    <trip id="veh318" depart="1.57" from="420892273#0" to="195743183#0"/>
    <trip id="veh319" depart="1.57" from="511699179" to="-587038082#1"/>
    <trip id="veh320" depart="1.58" from="-1321771943#2" to="195743342#0"/>
    <trip id="veh321" depart="1.58" from="1267505842#0" to="1106482765#0"/>
    <trip id="veh322" depart="1.59" from="167922071#0" to="198924552#4"/>
    <trip id="veh323" depart="1.59" from="1198594026#0" to="375165500#0"/>
    <trip id="veh324" depart="1.60" from="1025734022#0" to="671208358#3"/>
    <trip id="veh325" depart="1.60" from="808190587#0" to="671208358#3"/>
    <trip id="veh326" depart="1.61" from="46482602#0" to="464516471#0"/>
    <trip id="veh327" depart="1.61" from="1061623142#0" to="-196117084#2"/>
    <trip id="veh328" depart="1.62" from="808190584#3" to="1031879418#0"/>
    <trip id="veh329" depart="1.62" from="671208358#15" to="1376704198#0"/>
    <trip id="veh330" depart="1.62" from="420281339#0" to="195743345#0"/>
    <trip id="veh332" depart="1.63" from="1124078897#0" to="1211049194#0"/>
    <trip id="veh333" depart="1.64" from="496992868#0" to="1124078899#0"/>
    <trip id="veh334" depart="1.64" from="195743342#0" to="194926851#0"/>
    <trip id="veh335" depart="1.65" from="1022813500" to="458177130#0"/>
    <trip id="veh336" depart="1.65" from="195743344#0" to="420906752#0"/>
    <trip id="veh337" depart="1.66" from="1027189509#2" to="671208358#9"/>
    <trip id="veh338" depart="1.66" from="686125781#1" to="46538335#0"/>
    <trip id="veh339" depart="1.67" from="460585328#5" to="569345518#0"/>
    <trip id="veh340" depart="1.67" from="601733867#0" to="497251086#2"/>
    <trip id="veh341" depart="1.68" from="196117092#0" to="441405435#0"/>
    <trip id="veh342" depart="1.68" from="1127444736#0" to="1023236297#0"/>
    <trip id="veh343" depart="1.69" from="226041023" to="5670029#0"/>
    <trip id="veh344" depart="1.69" from="458180182#0" to="1167939119#0"/>
    <trip id="veh345" depart="1.70" from="1376704198#6" to="420892275#0"/>
    <trip id="veh346" depart="1.70" from="195743166#0" to="420496090#0"/>
    <trip id="veh347" depart="1.71" from="1025734017#0" to="1043336433#0"/>
    <trip id="veh348" depart="1.71" from="5671115#5" to="497258109#0"/>
    <trip id="veh349" depart="1.72" from="743358443#3" to="686125782#3"/>
    <trip id="veh351" depart="1.73" from="962831194" to="542257430#0"/>
    <trip id="veh352" depart="1.73" from="397795464#0" to="46521736#0"/>
    <trip id="veh353" depart="1.74" from="819074878" to="195743345#0"/>
    <trip id="veh354" depart="1.74" from="658583340#0" to="5671115#5"/>
    <trip id="veh355" depart="1.75" from="847002232#0" to="455125048#0"/>
    <trip id="veh356" depart="1.75" from="1027189509#2" to="658583340#3"/>
    <trip id="veh357" depart="1.76" from="1049920716#0" to="5673461#7"/>
    <trip id="veh358" depart="1.76" from="-511699183#2" to="226041011#1"/>
    <trip id="veh359" depart="1.77" from="375165664#0" to="1136460177#0"/>
    <trip id="veh360" depart="1.77" from="420899373" to="420496091#3"/>
    <trip id="veh361" depart="1.78" from="525729009#0" to="1356976352#0"/>
    <trip id="veh362" depart="1.78" from="5673117" to="420905130#0"/>
    <trip id="veh363" depart="1.79" from="458180196#0" to="195743345#0"/>
    <trip id="veh364" depart="1.79" from="670988060#0" to="324118554#0"/>
    <trip id="veh365" depart="1.80" from="847002232#0" to="968393479#3"/>
    <trip id="veh366" depart="1.80" from="438384693#0" to="195743166#4"/>
    <trip id="veh367" depart="1.81" from="1376935153#0" to="497165753#9"/>
    <trip id="veh368" depart="1.81" from="68674962#23" to="460585328#11"/>
    <trip id="veh369" depart="1.82" from="1051734607#0" to="658583340#8"/>
    <trip id="veh370" depart="1.82" from="569345480#0" to="194926846#0"/>
    <trip id="veh371" depart="1.83" from="743358443#0" to="1117867040#1"/>
    <trip id="veh372" depart="1.83" from="420899373" to="814278019#0"/>
    <trip id="veh373" depart="1.84" from="1320232776#0" to="420906752#0"/>
    <trip id="veh374" depart="1.84" from="226041029#0" to="-420904618#1"/>
    <trip id="veh375" depart="1.85" from="1021065071#0" to="458166897#25"/>
    <trip id="veh376" depart="1.85" from="1343181789#0" to="988977545#3"/>
    <trip id="veh377" depart="1.86" from="375165501#0" to="-46520921#1"/>
    <trip id="veh378" depart="1.86" from="499172074#16" to="569345518#0"/>
    <trip id="veh379" depart="1.87" from="1106482766#0" to="195743209#0"/>
    <trip id="veh380" depart="1.87" from="658583340#0" to="542257008#0"/>
    <trip id="veh381" depart="1.88" from="1106482767#0" to="542259076#0"/>
    <trip id="veh382" depart="1.88" from="1030119891#0" to="167922072#0"/>
    <trip id="veh383" depart="1.89" from="5671276#0" to="458180190#0"/>
    <trip id="veh384" depart="1.89" from="1052631409#0" to="195743210"/>
    <trip id="veh385" depart="1.90" from="420892263#0" to="569345525#0"/>
    <trip id="veh386" depart="1.90" from="-196117083#2" to="458180185#0"/>
    <trip id="veh387" depart="1.91" from="1376704196#0" to="420890023#0"/>
    <trip id="veh388" depart="1.91" from="388696207#3" to="438384693#3"/>
    <trip id="veh389" depart="1.92" from="497165756#0" to="965833822#4"/>
    <trip id="veh390" depart="1.92" from="167922070#0" to="-195743152#1"/>
    <trip id="veh392" depart="1.93" from="458180200#0" to="569345545#0"/>
    <trip id="veh393" depart="1.94" from="1198594026#0" to="569345486#0"/>
    <trip id="veh394" depart="1.94" from="438397345#0" to="541350711#3"/>
    <trip id="veh395" depart="1.94" from="497165753#3" to="569345543#0"/>
    <trip id="veh396" depart="1.95" from="421850830#0" to="195743301#0"/>
    <trip id="veh397" depart="1.95" from="-5670253#2" to="808190584#3"/>
    <trip id="veh398" depart="1.96" from="458180187#3" to="968513231#0"/>
    <trip id="veh399" depart="1.96" from="458180199#5" to="167922070#0"/>