<?xml version="1.0" encoding="UTF-8"?>

<!-- generated on 2025-05-13 17:04:55.895937 by osmWebWizard.py v1_22_0+0002-63e50f52594
<configuration>
    <net-file value="C:\Users\Guy\Sumo\2025-05-13-17-04-52\osm.net.xml.gz"/>
    <output-trip-file value="C:\Users\Guy\Sumo\2025-05-13-17-04-52\osm.passenger.trips.xml"/>
    <route-file value="C:\Users\Guy\Sumo\2025-05-13-17-04-52\osm.passenger.rou.xml"/>
    <prefix value="veh"/>
    <trip-attributes value="departLane=&quot;best&quot;"/>
    <fringe-start-attributes value="departSpeed=&quot;max&quot;"/>
    <vehicle-class value="passenger"/>
    <lanes value="True"/>
    <fringe-factor value="5"/>
    <allow-fringe.min-length value="1000.0"/>
    <via-edge-types value="highway.motorway,highway.motorway_link,highway.trunk_link,highway.primary_link,highway.secondary_link,highway.tertiary_link"/>
    <min-distance value="300.0"/>
    <min-distance.fringe value="10.0"/>
    <remove-loops value="True"/>
    <validate value="True"/>
    <insertion-density value="12.0"/>
</configuration>
-->

<!-- generated on 2025-05-13 17:04:55 by Eclipse SUMO duarouter Version 1.22.0
<duarouterConfiguration xmlns:xsi="http://www.w3.org/2001/XMLSchema-instance" xsi:noNamespaceSchemaLocation="http://sumo.dlr.de/xsd/duarouterConfiguration.xsd">

    <input>
        <net-file value="C:\Users\Guy\Sumo\2025-05-13-17-04-52\osm.net.xml.gz"/>
        <route-files value="C:\Users\Guy\Sumo\2025-05-13-17-04-52\osm.passenger.trips.xml"/>
    </input>

    <output>
        <output-file value="C:\Users\Guy\Sumo\2025-05-13-17-04-52\osm.passenger.trips.xml.tmp"/>
        <alternatives-output value="NUL"/>
        <write-trips value="true"/>
    </output>

    <processing>
        <remove-loops value="true"/>
    </processing>

    <time>
        <begin value="0.0"/>
        <end value="3600.0"/>
    </time>

    <report>
        <no-warnings value="true"/>
        <ignore-errors value="true"/>
        <no-step-log value="true"/>
    </report>

</duarouterConfiguration>
-->

<routes xmlns:xsi="http://www.w3.org/2001/XMLSchema-instance" xsi:noNamespaceSchemaLocation="http://sumo.dlr.de/xsd/routes_file.xsd">
    <vType id="veh_passenger" vClass="passenger"/>
    <trip id="veh0" type="veh_passenger" depart="0.00" departLane="best" departSpeed="max" from="275938819" to="203953023"/>
    <trip id="veh1" type="veh_passenger" depart="0.00" departLane="best" from="203953023" to="-304500007"/>
    <trip id="veh2" type="veh_passenger" depart="0.00" departLane="best" departSpeed="max" from="304500007" to="-203953027#0"/>
    <trip id="veh3" type="veh_passenger" depart="0.00" departLane="best" from="275938819" to="203953023"/>
    <trip id="veh4" type="veh_passenger" depart="0.00" departLane="best" departSpeed="max" from="-181766561" to="1033867714"/>
    <trip id="veh5" type="veh_passenger" depart="0.00" departLane="best" departSpeed="max" from="-1033867714" to="-304500007"/>
    <trip id="veh6" type="veh_passenger" depart="0.00" departLane="best" departSpeed="max" from="275938819" to="181766561"/>
    <trip id="veh7" type="veh_passenger" depart="0.00" departLane="best" departSpeed="max" from="-181766561" to="-203953023"/>
    <trip id="veh8" type="veh_passenger" depart="0.00" departLane="best" departSpeed="max" from="304500007" to="723589963"/>
    <trip id="veh9" type="veh_passenger" depart="4.31" departLane="best" departSpeed="max" from="304500007" to="-304500472#0"/>
    <trip id="veh10" type="veh_passenger" depart="1.13" departLane="best" from="203953027#0" to="-304500007"/>
    <trip id="veh11" type="veh_passenger" depart="1.94" departLane="best" from="657050788" to="-304500472#0"/>
    <trip id="veh12" type="veh_passenger" depart="5.75" departLane="best" departSpeed="max" from="-1041497734" to="-203953027#0"/>
    <trip id="veh13" type="veh_passenger" depart="4.56" departLane="best" departSpeed="max" from="304500007" to="-203953023"/>
    <trip id="veh14" type="veh_passenger" depart="3.38" departLane="best" departSpeed="max" from="304500007" to="30113554"/>
    <trip id="veh15" type="veh_passenger" depart="4.19" departLane="best" from="203953025" to="723589963"/>
    <trip id="veh16" type="veh_passenger" depart="6.00" departLane="best" from="-30113554" to="181766561"/>
    <trip id="veh17" type="veh_passenger" depart="6.81" departLane="best" departSpeed="max" from="304500007" to="-203953025"/>
    <trip id="veh18" type="veh_passenger" depart="6.63" departLane="best" departSpeed="max" from="304500007" to="181766561"/>
    <trip id="veh19" type="veh_passenger" depart="7.44" departLane="best" departSpeed="max" from="275938819" to="203953023"/>
    <trip id="veh20" type="veh_passenger" depart="7.25" departLane="best" departSpeed="max" from="-181766561" to="-304500472#0"/>
    <trip id="veh21" type="veh_passenger" depart="8.06" departLane="best" departSpeed="max" from="-1041497734" to="-304500007"/>
    <trip id="veh22" type="veh_passenger" depart="8.88" departLane="best" departSpeed="max" from="-1041497734" to="-304500472#0"/>
    <trip id="veh23" type="veh_passenger" depart="7.69" departLane="best" from="203953027#1" to="-304500007"/>
    <trip id="veh24" type="veh_passenger" depart="9.50" departLane="best" from="203953023" to="723589963"/>
    <trip id="veh25" type="veh_passenger" depart="95.31" departLane="best" departSpeed="max" from="275938819" to="203953023"/>
    <trip id="veh26" type="veh_passenger" depart="99.13" departLane="best" departSpeed="max" from="-1041497734" to="375570830"/>
    <trip id="veh27" type="veh_passenger" depart="102.94" departLane="best" departSpeed="max" from="-1041497734" to="-304500472#0"/>
    <trip id="veh28" type="veh_passenger" depart="106.75" departLane="best" from="-1041497734" to="-203953027#0"/>
    <trip id="veh29" type="veh_passenger" depart="110.56" departLane="best" from="203953027#0" to="203953027#1"/>
    <trip id="veh30" type="veh_passenger" depart="114.38" departLane="best" departSpeed="max" from="-181766561" to="-203953023"/>
    <trip id="veh31" type="veh_passenger" depart="118.19" departLane="best" from="203953025" to="-304500007"/>
    <trip id="veh32" type="veh_passenger" depart="122.00" departLane="best" departSpeed="max" from="-181766561" to="723589963"/>
    <trip id="veh33" type="veh_passenger" depart="125.81" departLane="best" departSpeed="max" from="304500007" to="-304500472#0"/>
    <trip id="veh34" type="veh_passenger" depart="129.63" departLane="best" departSpeed="max" from="-181766561" to="-304500007"/>
    <trip id="veh35" type="veh_passenger" depart="133.44" departLane="best" from="203953027#0" to="-304500007"/>
    <trip id="veh36" type="veh_passenger" depart="137.25" departLane="best" from="203953027#1" to="723589963"/>
    <trip id="veh37" type="veh_passenger" depart="141.07" departLane="best" from="-30113554" to="-304500007"/>
    <trip id="veh38" type="veh_passenger" depart="144.88" departLane="best" from="-1041497734" to="1033867714"/>
    <trip id="veh39" type="veh_passenger" depart="148.69" departLane="best" departSpeed="max" from="-1041497734" to="-203953023"/>
    <trip id="veh40" type="veh_passenger" depart="152.50" departLane="best" departSpeed="max" from="-1041497734" to="-203953025"/>
    <trip id="veh41" type="veh_passenger" depart="156.32" departLane="best" departSpeed="max" from="304500007" to="-322929916"/>
    <trip id="veh42" type="veh_passenger" depart="160.13" departLane="best" departSpeed="max" from="-1033867714" to="-304500472#0"/>
    <trip id="veh43" type="veh_passenger" depart="163.94" departLane="best" from="-1041497734" to="181766561"/>
    <trip id="veh44" type="veh_passenger" depart="167.75" departLane="best" departSpeed="max" from="-1033867714" to="30113554"/>
    <trip id="veh45" type="veh_passenger" depart="171.57" departLane="best" departSpeed="max" from="275938819" to="181766561"/>
    <trip id="veh46" type="veh_passenger" depart="175.38" departLane="best" from="203953023" to="203953027#0"/>
    <trip id="veh47" type="veh_passenger" depart="179.19" departLane="best" departSpeed="max" from="-1041497734" to="-429084198"/>
    <trip id="veh48" type="veh_passenger" depart="183.00" departLane="best" from="429084194" to="723589963"/>
    <trip id="veh49" type="veh_passenger" depart="186.82" departLane="best" from="203953023" to="-304500007"/>
    <trip id="veh50" type="veh_passenger" depart="190.63" departLane="best" from="304500472#1" to="657050789"/>
    <trip id="veh51" type="veh_passenger" depart="194.44" departLane="best" from="203953025" to="203953027#0"/>
    <trip id="veh52" type="veh_passenger" depart="198.25" departLane="best" departSpeed="max" from="275938819" to="-304500007"/>
    <trip id="veh53" type="veh_passenger" depart="202.07" departLane="best" departSpeed="max" from="304500007" to="181766561"/>
    <trip id="veh54" type="veh_passenger" depart="205.88" departLane="best" departSpeed="max" from="304500007" to="181766561"/>
    <trip id="veh55" type="veh_passenger" depart="209.69" departLane="best" departSpeed="max" from="-1033867714" to="-304500472#0"/>
    <trip id="veh56" type="veh_passenger" depart="213.50" departLane="best" departSpeed="max" from="-1033867714" to="723589963"/>
    <trip id="veh57" type="veh_passenger" depart="217.32" departLane="best" departSpeed="max" from="304500007" to="429084194"/>
    <trip id="veh58" type="veh_passenger" depart="221.13" departLane="best" from="-203953025" to="-203953025"/>
    <trip id="veh59" type="veh_passenger" depart="224.94" departLane="best" departSpeed="max" from="304500007" to="723589963"/>
    <trip id="veh60" type="veh_passenger" depart="228.75" departLane="best" departSpeed="max" from="-1041497734" to="1033867714"/>
    <trip id="veh61" type="veh_passenger" depart="232.57" departLane="best" departSpeed="max" from="-1041497734" to="-322929916"/>
    <trip id="veh62" type="veh_passenger" depart="236.38" departLane="best" departSpeed="max" from="304500007" to="30113554"/>
    <trip id="veh63" type="veh_passenger" depart="240.19" departLane="best" from="429084194" to="181766561"/>
    <trip id="veh64" type="veh_passenger" depart="244.00" departLane="best" departSpeed="max" from="-181766561" to="657050789"/>
    <trip id="veh65" type="veh_passenger" depart="247.82" departLane="best" from="275938819" to="-304500007"/>
    <trip id="veh66" type="veh_passenger" depart="251.63" departLane="best" from="203953025" to="30113554"/>
    <trip id="veh67" type="veh_passenger" depart="255.44" departLane="best" departSpeed="max" from="-181766561" to="-304500472#0"/>
    <trip id="veh68" type="veh_passenger" depart="259.25" departLane="best" from="-1041497734" to="-203953027#0"/>
    <trip id="veh69" type="veh_passenger" depart="263.07" departLane="best" from="304500472#1" to="657050789"/>
    <trip id="veh70" type="veh_passenger" depart="266.88" departLane="best" departSpeed="max" from="-1041497734" to="-304500007"/>
    <trip id="veh71" type="veh_passenger" depart="270.69" departLane="best" from="-203953027#0" to="-203953023"/>
    <trip id="veh72" type="veh_passenger" depart="274.51" departLane="best" departSpeed="max" from="-181766561" to="-304500007"/>
    <trip id="veh73" type="veh_passenger" depart="278.32" departLane="best" departSpeed="max" from="-1041497734" to="-203953025"/>
    <trip id="veh74" type="veh_passenger" depart="282.13" departLane="best" departSpeed="max" from="-181766561" to="723589963"/>
    <trip id="veh75" type="veh_passenger" depart="285.94" departLane="best" departSpeed="max" from="304500007" to="-203953025"/>
    <trip id="veh76" type="veh_passenger" depart="289.76" departLane="best" departSpeed="max" from="-181766561" to="203953027#1"/>
    <trip id="veh77" type="veh_passenger" depart="293.57" departLane="best" departSpeed="max" from="-181766561" to="30113554"/>
    <trip id="veh78" type="veh_passenger" depart="297.38" departLane="best" from="429084194" to="181766561"/>
    <trip id="veh79" type="veh_passenger" depart="301.19" departLane="best" from="-429084198" to="375570788"/>
    <trip id="veh80" type="veh_passenger" depart="305.01" departLane="best" departSpeed="max" from="-1041497734" to="-429084198"/>
    <trip id="veh81" type="veh_passenger" depart="308.82" departLane="best" departSpeed="max" from="275938819" to="203953027#1"/>
    <trip id="veh82" type="veh_passenger" depart="312.63" departLane="best" from="-1041497734" to="-203953027#0"/>
    <trip id="veh83" type="veh_passenger" depart="316.44" departLane="best" from="-304500472#0" to="-304500472#0"/>
    <trip id="veh84" type="veh_passenger" depart="320.26" departLane="best" departSpeed="max" from="-1041497734" to="-429084198"/>
    <trip id="veh85" type="veh_passenger" depart="324.07" departLane="best" from="-304500472#0" to="-304500472#0"/>
    <trip id="veh86" type="veh_passenger" depart="327.88" departLane="best" departSpeed="max" from="-181766561" to="723589963"/>
    <trip id="veh87" type="veh_passenger" depart="331.69" departLane="best" from="304500472#1" to="657050788"/>
    <trip id="veh88" type="veh_passenger" depart="335.51" departLane="best" from="-203953027#0" to="-203953025"/>
    <trip id="veh89" type="veh_passenger" depart="339.32" departLane="best" from="657050789" to="723589963"/>
    <trip id="veh90" type="veh_passenger" depart="343.13" departLane="best" from="1367644951" to="-304500007"/>
    <trip id="veh91" type="veh_passenger" depart="346.94" departLane="best" from="275938819" to="203953025"/>
    <trip id="veh92" type="veh_passenger" depart="350.76" departLane="best" from="30113554" to="723589963"/>
    <trip id="veh93" type="veh_passenger" depart="354.57" departLane="best" departSpeed="max" from="-181766561" to="375570788"/>
    <trip id="veh94" type="veh_passenger" depart="358.38" departLane="best" from="429084194" to="-322929916"/>
    <trip id="veh95" type="veh_passenger" depart="362.19" departLane="best" from="657050789" to="723589963"/>
    <trip id="veh96" type="veh_passenger" depart="366.01" departLane="best" from="203953027#0" to="30113554"/>
    <trip id="veh97" type="veh_passenger" depart="369.82" departLane="best" departSpeed="max" from="-1041497734" to="-304500472#0"/>
    <trip id="veh98" type="veh_passenger" depart="373.63" departLane="best" from="1367644951" to="181766561"/>
    <trip id="veh99" type="veh_passenger" depart="377.44" departLane="best" departSpeed="max" from="-1033867714" to="181766561"/>
    <trip id="veh100" type="veh_passenger" depart="381.26" departLane="best" from="203953023" to="657050788"/>
    <trip id="veh101" type="veh_passenger" depart="385.07" departLane="best" departSpeed="max" from="-1041497734" to="-304500007"/>
    <trip id="veh102" type="veh_passenger" depart="388.88" departLane="best" from="203953027#1" to="203953027#1"/>
    <trip id="veh103" type="veh_passenger" depart="392.69" departLane="best" departSpeed="max" from="-181766561" to="203953027#1"/>
    <trip id="veh104" type="veh_passenger" depart="396.51" departLane="best" from="-203953027#2" to="-203953025"/>
    <trip id="veh105" type="veh_passenger" depart="400.32" departLane="best" from="275938819" to="181766561"/>
    <trip id="veh106" type="veh_passenger" depart="404.13" departLane="best" from="203953025" to="723589963"/>
    <trip id="veh107" type="veh_passenger" depart="407.95" departLane="best" departSpeed="max" from="-181766561" to="30113554"/>
    <trip id="veh108" type="veh_passenger" depart="411.76" departLane="best" departSpeed="max" from="-181766561" to="-304500472#0"/>
    <trip id="veh109" type="veh_passenger" depart="415.57" departLane="best" from="-203953025" to="-322929916"/>
    <trip id="veh110" type="veh_passenger" depart="419.38" departLane="best" departSpeed="max" from="-1041497734" to="1033867714"/>
    <trip id="veh111" type="veh_passenger" depart="423.20" departLane="best" from="723589963" to="723589963"/>
    <trip id="veh112" type="veh_passenger" depart="427.01" departLane="best" departSpeed="max" from="-1041497734" to="-304500007"/>
    <trip id="veh113" type="veh_passenger" depart="430.82" departLane="best" departSpeed="max" from="-181766561" to="723589963"/>
    <trip id="veh114" type="veh_passenger" depart="434.63" departLane="best" departSpeed="max" from="304500007" to="723589963"/>
    <trip id="veh115" type="veh_passenger" depart="438.45" departLane="best" from="203953027#1" to="-304500007"/>
    <trip id="veh116" type="veh_passenger" depart="442.26" departLane="best" departSpeed="max" from="304500007" to="-304500472#0"/>
    <trip id="veh117" type="veh_passenger" depart="446.07" departLane="best" departSpeed="max" from="275938819" to="723589963"/>
    <trip id="veh118" type="veh_passenger" depart="449.88" departLane="best" departSpeed="max" from="275938819" to="723589963"/>
    <trip id="veh119" type="veh_passenger" depart="453.70" departLane="best" departSpeed="max" from="304500007" to="-304500472#0"/>
    <trip id="veh120" type="veh_passenger" depart="457.51" departLane="best" departSpeed="max" from="275938819" to="723589963"/>
    <trip id="veh121" type="veh_passenger" depart="461.32" departLane="best" departSpeed="max" from="-1041497734" to="-203953027#2"/>
    <trip id="veh122" type="veh_passenger" depart="465.13" departLane="best" departSpeed="max" from="-1041497734" to="181766561"/>
    <trip id="veh123" type="veh_passenger" depart="468.95" departLane="best" departSpeed="max" from="275938819" to="-304500007"/>
    <trip id="veh124" type="veh_passenger" depart="472.76" departLane="best" departSpeed="max" from="275938819" to="-304500007"/>
    <trip id="veh125" type="veh_passenger" depart="476.57" departLane="best" from="1367644951" to="723589963"/>
    <trip id="veh126" type="veh_passenger" depart="480.38" departLane="best" departSpeed="max" from="304500007" to="-203953027#0"/>
    <trip id="veh127" type="veh_passenger" depart="484.20" departLane="best" from="-304500472#0" to="-304500472#0"/>
    <trip id="veh128" type="veh_passenger" depart="488.01" departLane="best" departSpeed="max" from="-1033867714" to="375570788"/>
    <trip id="veh129" type="veh_passenger" depart="491.82" departLane="best" departSpeed="max" from="275938819" to="-304500007"/>
    <trip id="veh130" type="veh_passenger" depart="495.63" departLane="best" from="30113554" to="181766561"/>
    <trip id="veh131" type="veh_passenger" depart="499.45" departLane="best" from="304500472#1" to="723589963"/>
    <trip id="veh132" type="veh_passenger" depart="503.26" departLane="best" from="304500472#1" to="181766561"/>
    <trip id="veh133" type="veh_passenger" depart="507.07" departLane="best" departSpeed="max" from="304500007" to="181766561"/>
    <trip id="veh134" type="veh_passenger" depart="510.88" departLane="best" departSpeed="max" from="-1041497734" to="-30113554"/>
    <trip id="veh135" type="veh_passenger" depart="514.70" departLane="best" from="203953025" to="723589963"/>
    <trip id="veh136" type="veh_passenger" depart="518.51" departLane="best" departSpeed="max" from="304500007" to="657050788"/>
    <trip id="veh137" type="veh_passenger" depart="522.32" departLane="best" from="304500472#1" to="-304500007"/>
    <trip id="veh138" type="veh_passenger" depart="526.13" departLane="best" departSpeed="max" from="-181766561" to="203953027#1"/>
    <trip id="veh139" type="veh_passenger" depart="529.95" departLane="best" departSpeed="max" from="304500007" to="723589963"/>
    <trip id="veh140" type="veh_passenger" depart="533.76" departLane="best" from="275938819" to="203953025"/>
    <trip id="veh141" type="veh_passenger" depart="537.57" departLane="best" departSpeed="max" from="304500007" to="723589963"/>
    <trip id="veh142" type="veh_passenger" depart="541.39" departLane="best" departSpeed="max" from="304500007" to="723589963"/>
    <trip id="veh143" type="veh_passenger" depart="545.20" departLane="best" departSpeed="max" from="-1033867714" to="30113554"/>
    <trip id="veh144" type="veh_passenger" depart="549.01" departLane="best" from="203953027#0" to="723589963"/>
    <trip id="veh145" type="veh_passenger" depart="552.82" departLane="best" departSpeed="max" from="304500007" to="657050788"/>
    <trip id="veh146" type="veh_passenger" depart="556.64" departLane="best" departSpeed="max" from="304500007" to="-203953027#2"/>
    <trip id="veh147" type="veh_passenger" depart="560.45" departLane="best" departSpeed="max" from="304500007" to="657050788"/>
    <trip id="veh148" type="veh_passenger" depart="564.26" departLane="best" departSpeed="max" from="-181766561" to="375570788"/>
    <trip id="veh149" type="veh_passenger" depart="568.07" departLane="best" from="429084194" to="-304500472#0"/>
    <trip id="veh150" type="veh_passenger" depart="571.89" departLane="best" departSpeed="max" from="-1033867714" to="-304500007"/>
    <trip id="veh151" type="veh_passenger" depart="575.70" departLane="best" from="203953027#0" to="657050789"/>
    <trip id="veh152" type="veh_passenger" depart="579.51" departLane="best" from="1367644951" to="-304500472#0"/>
    <trip id="veh153" type="veh_passenger" depart="583.32" departLane="best" from="-1041497734" to="181766561"/>
    <trip id="veh154" type="veh_passenger" depart="587.14" departLane="best" from="429084194" to="-203953027#2"/>
    <trip id="veh155" type="veh_passenger" depart="590.95" departLane="best" from="657050789" to="-304500007"/>
    <trip id="veh156" type="veh_passenger" depart="594.76" departLane="best" from="657050789" to="-304500007"/>
    <trip id="veh157" type="veh_passenger" depart="598.57" departLane="best" departSpeed="max" from="-1041497734" to="-429084198"/>
    <trip id="veh158" type="veh_passenger" depart="602.39" departLane="best" departSpeed="max" from="275938819" to="1033867714"/>
    <trip id="veh159" type="veh_passenger" depart="606.20" departLane="best" from="-30113554" to="181766561"/>
    <trip id="veh160" type="veh_passenger" depart="610.01" departLane="best" departSpeed="max" from="-181766561" to="-304500472#0"/>
    <trip id="veh161" type="veh_passenger" depart="613.82" departLane="best" departSpeed="max" from="-1033867714" to="723589963"/>
    <trip id="veh162" type="veh_passenger" depart="617.64" departLane="best" from="203953025" to="30113554"/>
    <trip id="veh163" type="veh_passenger" depart="621.45" departLane="best" from="-203953027#2" to="-203953025"/>
    <trip id="veh164" type="veh_passenger" depart="625.26" departLane="best" from="203953025" to="-429084198"/>
    <trip id="veh165" type="veh_passenger" depart="629.07" departLane="best" from="-203953025" to="-322929916"/>
    <trip id="veh166" type="veh_passenger" depart="632.89" departLane="best" from="-304500472#0" to="-304500472#0"/>
    <trip id="veh167" type="veh_passenger" depart="636.70" departLane="best" departSpeed="max" from="-1041497734" to="-322929916"/>
    <trip id="veh168" type="veh_passenger" depart="640.51" departLane="best" from="429084194" to="-203953027#2"/>
    <trip id="veh169" type="veh_passenger" depart="644.32" departLane="best" from="304500472#1" to="203953025"/>
    <trip id="veh170" type="veh_passenger" depart="648.14" departLane="best" from="203953025" to="181766561"/>
    <trip id="veh171" type="veh_passenger" depart="651.95" departLane="best" departSpeed="max" from="-1033867714" to="-304500472#0"/>
    <trip id="veh172" type="veh_passenger" depart="655.76" departLane="best" from="304500472#1" to="181766561"/>
    <trip id="veh173" type="veh_passenger" depart="659.57" departLane="best" departSpeed="max" from="275938819" to="1033867714"/>
    <trip id="veh174" type="veh_passenger" depart="663.39" departLane="best" from="304500472#1" to="-304500007"/>
    <trip id="veh175" type="veh_passenger" depart="667.20" departLane="best" from="429084194" to="723589963"/>
    <trip id="veh176" type="veh_passenger" depart="671.01" departLane="best" departSpeed="max" from="-1041497734" to="1367644951"/>
    <trip id="veh177" type="veh_passenger" depart="674.83" departLane="best" departSpeed="max" from="304500007" to="-322929916"/>
    <trip id="veh178" type="veh_passenger" depart="678.64" departLane="best" departSpeed="max" from="275938819" to="-304500007"/>
    <trip id="veh179" type="veh_passenger" depart="682.45" departLane="best" departSpeed="max" from="-1041497734" to="-1041497734"/>
    <trip id="veh180" type="veh_passenger" depart="686.26" departLane="best" departSpeed="max" from="-181766561" to="1033867714"/>
    <trip id="veh181" type="veh_passenger" depart="690.08" departLane="best" departSpeed="max" from="304500007" to="-203953025"/>
    <trip id="veh182" type="veh_passenger" depart="693.89" departLane="best" from="275938819" to="203953025"/>
    <trip id="veh183" type="veh_passenger" depart="697.70" departLane="best" departSpeed="max" from="-1041497734" to="-304500472#0"/>
    <trip id="veh184" type="veh_passenger" depart="701.51" departLane="best" from="203953023" to="-304500007"/>
    <trip id="veh185" type="veh_passenger" depart="705.33" departLane="best" departSpeed="max" from="275938819" to="723589963"/>
    <trip id="veh186" type="veh_passenger" depart="709.14" departLane="best" from="-30113554" to="375570788"/>
    <trip id="veh187" type="veh_passenger" depart="712.95" departLane="best" departSpeed="max" from="-1041497734" to="-429084198"/>
    <trip id="veh188" type="veh_passenger" depart="716.76" departLane="best" departSpeed="max" from="-181766561" to="-429084198"/>
    <trip id="veh189" type="veh_passenger" depart="720.58" departLane="best" from="-429084198" to="375570788"/>
    <trip id="veh190" type="veh_passenger" depart="724.39" departLane="best" departSpeed="max" from="275938819" to="723589963"/>
    <trip id="veh191" type="veh_passenger" depart="728.20" departLane="best" from="203953027#1" to="723589963"/>
    <trip id="veh192" type="veh_passenger" depart="732.01" departLane="best" departSpeed="max" from="304500007" to="-203953025"/>
    <trip id="veh193" type="veh_passenger" depart="735.83" departLane="best" departSpeed="max" from="275938819" to="1033867714"/>
    <trip id="veh194" type="veh_passenger" depart="739.64" departLane="best" departSpeed="max" from="304500007" to="181766561"/>
    <trip id="veh195" type="veh_passenger" depart="743.45" departLane="best" from="304500472#1" to="304500472#1"/>
    <trip id="veh196" type="veh_passenger" depart="747.26" departLane="best" from="-429084198" to="-304500007"/>
    <trip id="veh197" type="veh_passenger" depart="751.08" departLane="best" departSpeed="max" from="-181766561" to="-203953027#0"/>
    <trip id="veh198" type="veh_passenger" depart="754.89" departLane="best" departSpeed="max" from="304500007" to="1367644951"/>
    <trip id="veh199" type="veh_passenger" depart="758.70" departLane="best" departSpeed="max" from="275938819" to="-304500007"/>
    <trip id="veh200" type="veh_passenger" depart="762.51" departLane="best" departSpeed="max" from="-1041497734" to="-304500472#0"/>
    <trip id="veh201" type="veh_passenger" depart="766.33" departLane="best" from="-203953023" to="-304500472#0"/>
    <trip id="veh202" type="veh_passenger" depart="770.14" departLane="best" from="203953025" to="30113554"/>
    <trip id="veh203" type="veh_passenger" depart="773.95" departLane="best" departSpeed="max" from="-181766561" to="-304500472#0"/>
    <trip id="veh204" type="veh_passenger" depart="777.76" departLane="best" departSpeed="max" from="275938819" to="203953025"/>
    <trip id="veh205" type="veh_passenger" depart="781.58" departLane="best" from="275938819" to="181766561"/>
    <trip id="veh206" type="veh_passenger" depart="785.39" departLane="best" from="275938819" to="-304500007"/>
    <trip id="veh207" type="veh_passenger" depart="789.20" departLane="best" from="275938819" to="723589963"/>
    <trip id="veh208" type="veh_passenger" depart="793.01" departLane="best" from="-203953027#2" to="-304500472#0"/>
    <trip id="veh209" type="veh_passenger" depart="796.83" departLane="best" from="-203953027#2" to="-322929916"/>
    <trip id="veh210" type="veh_passenger" depart="800.64" departLane="best" departSpeed="max" from="304500007" to="723589963"/>
    <trip id="veh211" type="veh_passenger" depart="804.45" departLane="best" from="275938819" to="304500472#1"/>
    <trip id="veh212" type="veh_passenger" depart="808.27" departLane="best" departSpeed="max" from="-181766561" to="-304500007"/>
    <trip id="veh213" type="veh_passenger" depart="812.08" departLane="best" from="203953027#0" to="203953027#1"/>
    <trip id="veh214" type="veh_passenger" depart="815.89" departLane="best" from="275938819" to="-304500007"/>
    <trip id="veh215" type="veh_passenger" depart="819.70" departLane="best" departSpeed="max" from="275938819" to="203953023"/>
    <trip id="veh216" type="veh_passenger" depart="823.52" departLane="best" from="-30113554" to="181766561"/>
    <trip id="veh217" type="veh_passenger" depart="827.33" departLane="best" departSpeed="max" from="-1033867714" to="203953027#0"/>
    <trip id="veh218" type="veh_passenger" depart="831.14" departLane="best" departSpeed="max" from="-1041497734" to="1033867714"/>
    <trip id="veh219" type="veh_passenger" depart="834.95" departLane="best" departSpeed="max" from="-1033867714" to="-304500472#0"/>
    <trip id="veh220" type="veh_passenger" depart="838.77" departLane="best" departSpeed="max" from="-181766561" to="-304500472#0"/>
    <trip id="veh221" type="veh_passenger" depart="842.58" departLane="best" departSpeed="max" from="304500007" to="-304500472#0"/>
    <trip id="veh222" type="veh_passenger" depart="846.39" departLane="best" departSpeed="max" from="-181766561" to="-203953027#0"/>
    <trip id="veh223" type="veh_passenger" depart="850.20" departLane="best" departSpeed="max" from="-1033867714" to="181766561"/>
    <trip id="veh224" type="veh_passenger" depart="854.02" departLane="best" from="-1041497734" to="-304500472#0"/>
    <trip id="veh225" type="veh_passenger" depart="857.83" departLane="best" departSpeed="max" from="275938819" to="375570788"/>
    <trip id="veh226" type="veh_passenger" depart="861.64" departLane="best" departSpeed="max" from="275938819" to="304500472#1"/>