<?xml version="1.0" encoding="UTF-8"?>

<!-- generated on 2025-05-12 17:31:45.821198 by osmWebWizard.py v1_22_0+0002-63e50f52594
<configuration>
    <net-file value="C:\Users\Guy\Sumo\2025-05-12-17-31-27\osm.net.xml.gz"/>
    <output-trip-file value="C:\Users\Guy\Sumo\2025-05-12-17-31-27\osm.passenger.trips.xml"/>
    <route-file value="C:\Users\Guy\Sumo\2025-05-12-17-31-27\osm.passenger.rou.xml"/>
    <prefix value="veh"/>
    <trip-attributes value="departLane=&quot;best&quot;"/>
    <fringe-start-attributes value="departSpeed=&quot;max&quot;"/>
    <vehicle-class value="passenger"/>
    <lanes value="True"/>
    <fringe-factor value="5"/>
    <allow-fringe.min-length value="1000.0"/>
    <via-edge-types value="highway.motorway,highway.motorway_link,highway.trunk_link,highway.primary_link,highway.secondary_link,highway.tertiary_link"/>
    <min-distance value="300.0"/>
    <min-distance.fringe value="10.0"/>
    <remove-loops value="True"/>
    <validate value="True"/>
    <insertion-density value="12.0"/>
</configuration>
-->

<!-- generated on 2025-05-12 17:31:45 by Eclipse SUMO duarouter Version 1.22.0
<duarouterConfiguration xmlns:xsi="http://www.w3.org/2001/XMLSchema-instance" xsi:noNamespaceSchemaLocation="http://sumo.dlr.de/xsd/duarouterConfiguration.xsd">

    <input>
        <net-file value="C:\Users\Guy\Sumo\2025-05-12-17-31-27\osm.net.xml.gz"/>
        <route-files value="C:\Users\Guy\Sumo\2025-05-12-17-31-27\osm.passenger.trips.xml"/>
    </input>

    <output>
        <output-file value="C:\Users\Guy\Sumo\2025-05-12-17-31-27\osm.passenger.trips.xml.tmp"/>
        <alternatives-output value="NUL"/>
        <write-trips value="true"/>
    </output>

    <processing>
        <remove-loops value="true"/>
    </processing>

    <time>
        <begin value="0.0"/>
        <end value="3600.0"/>
    </time>

    <report>
        <no-warnings value="true"/>
        <ignore-errors value="true"/>
        <no-step-log value="true"/>
    </report>

</duarouterConfiguration>
-->

<routes xmlns:xsi="http://www.w3.org/2001/XMLSchema-instance" xsi:noNamespaceSchemaLocation="http://sumo.dlr.de/xsd/routes_file.xsd">
    <vType id="veh_passenger" vClass="passenger"/>
    <trip id="veh0" type="veh_passenger" depart="0.00" departLane="best" from="497251086#0" to="-420904618#1"/>
    <trip id="veh1" type="veh_passenger" depart="0.00" departLane="best" from="195743166#0" to="-1320232776#1"/>
    <trip id="veh2" type="veh_passenger" depart="0.00" departLane="best" from="569345502#3" to="497251086#2"/>
    <trip id="veh3" type="veh_passenger" depart="0.00" departLane="best" departSpeed="max" from="818182930#0" to="1030123275#0"/>
    <trip id="veh4" type="veh_passenger" depart="0.00" departLane="best" from="420902878#0" to="-497258109#4"/>
    <trip id="veh5" type="veh_passenger" depart="0.00" departLane="best" from="1320232776#0" to="455678353#0"/>
    <trip id="veh7" type="veh_passenger" depart="0.00" departLane="best" from="505582406#0" to="458180183#0"/>
    <trip id="veh8" type="veh_passenger" depart="0.00" departLane="best" from="68674962#20" to="-1272613981"/>
    <trip id="veh9" type="veh_passenger" depart="0.00" departLane="best" from="671208356#0" to="511699176#0"/>
    <trip id="veh10" type="veh_passenger" depart="0.00" departLane="best" from="308322448#0" to="1106482768#0"/>
    <trip id="veh11" type="veh_passenger" depart="22.57" departLane="best" from="962626218#0" to="226041025#0"/>
    <trip id="veh12" type="veh_passenger" depart="24.62" departLane="best" from="1049841322#0" to="1030123278#0"/>
    <trip id="veh13" type="veh_passenger" depart="26.67" departLane="best" from="68674962#32" to="46443656#0"/>
    <trip id="veh14" type="veh_passenger" depart="28.72" departLane="best" from="671208357#0" to="541350711#3"/>
    <trip id="veh15" type="veh_passenger" depart="30.78" departLane="best" from="458180197#0" to="884400301#0"/>
    <trip id="veh16" type="veh_passenger" depart="32.83" departLane="best" departSpeed="max" from="68674962#0" to="464516471#4"/>
    <trip id="veh17" type="veh_passenger" depart="34.88" departLane="best" from="727702633#0" to="458180197#0"/>
    <trip id="veh18" type="veh_passenger" depart="36.93" departLane="best" from="5671115#2" to="1021065071#0"/>
    <trip id="veh19" type="veh_passenger" depart="38.98" departLane="best" from="1030119892#0" to="1343181788#0"/>
    <trip id="veh20" type="veh_passenger" depart="41.03" departLane="best" from="1051743127#0" to="194926855#0"/>
    <trip id="veh21" type="veh_passenger" depart="43.09" departLane="best" from="497165756#3" to="375164210"/>
    <trip id="veh22" type="veh_passenger" depart="45.14" departLane="best" from="397795464#0" to="125479721#0"/>
    <trip id="veh23" type="veh_passenger" depart="47.19" departLane="best" from="194920158#5" to="808190579#0"/>
    <trip id="veh24" type="veh_passenger" depart="49.24" departLane="best" from="194926854#0" to="464516471#0"/>
    <trip id="veh25" type="veh_passenger" depart="51.29" departLane="best" from="1198594026#0" to="541350711#3"/>
    <trip id="veh26" type="veh_passenger" depart="53.34" departLane="best" from="1136952921#0" to="375165666#0"/>
    <trip id="veh27" type="veh_passenger" depart="55.40" departLane="best" from="968513231#0" to="46525065#3"/>
    <trip id="veh28" type="veh_passenger" depart="57.45" departLane="best" departSpeed="max" from="460585328#0" to="497251086#2"/>
    <trip id="veh29" type="veh_passenger" depart="59.50" departLane="best" from="68674962#23" to="5672752#0"/>
    <trip id="veh30" type="veh_passenger" depart="61.55" departLane="best" from="1343181789#0" to="-511699179"/>
    <trip id="veh31" type="veh_passenger" depart="63.60" departLane="best" from="198595461#5" to="194926847#0"/>
    <trip id="veh32" type="veh_passenger" depart="65.65" departLane="best" from="127693103#0" to="808190588#0"/>
    <trip id="veh33" type="veh_passenger" depart="67.71" departLane="best" from="808190584#0" to="196117092#0"/>
    <trip id="veh34" type="veh_passenger" depart="69.76" departLane="best" departSpeed="max" from="511699178#0" to="397795464#0"/>
    <trip id="veh35" type="veh_passenger" depart="71.81" departLane="best" departSpeed="max" from="835176555#0" to="420904617"/>
    <trip id="veh36" type="veh_passenger" depart="73.86" departLane="best" departSpeed="max" from="194920158#0" to="1376704198#6"/>
    <trip id="veh37" type="veh_passenger" depart="75.91" departLane="best" departSpeed="max" from="460585328#0" to="169267543#0"/>
    <trip id="veh38" type="veh_passenger" depart="77.96" departLane="best" from="464516471#13" to="68674962#32"/>
    <trip id="veh39" type="veh_passenger" depart="80.02" departLane="best" from="420892263#0" to="1308875366#2"/>
    <trip id="veh40" type="veh_passenger" depart="82.07" departLane="best" from="988984235#0" to="456409017#0"/>
    <trip id="veh41" type="veh_passenger" depart="84.12" departLane="best" from="1043336433#0" to="1021065071#0"/>
    <trip id="veh42" type="veh_passenger" depart="86.17" departLane="best" from="1061979012#0" to="46518740"/>
    <trip id="veh43" type="veh_passenger" depart="88.22" departLane="best" departSpeed="max" from="619280612#0" to="420890028"/>
    <trip id="veh44" type="veh_passenger" depart="90.27" departLane="best" from="1025734018#0" to="382740985#0"/>
    <trip id="veh45" type="veh_passenger" depart="92.33" departLane="best" from="988977545#6" to="458166897#22"/>
    <trip id="veh46" type="veh_passenger" depart="94.38" departLane="best" from="965833822#11" to="670988060#3"/>
    <trip id="veh47" type="veh_passenger" depart="96.43" departLane="best" from="-196117083#2" to="525729010#0"/>
    <trip id="veh48" type="veh_passenger" depart="98.48" departLane="best" from="542257430#0" to="458166897#7"/>
    <trip id="veh49" type="veh_passenger" depart="100.53" departLane="best" from="194920158#5" to="46538335#0"/>
    <trip id="veh50" type="veh_passenger" depart="102.58" departLane="best" from="1061979013#0" to="420892269#0"/>
    <trip id="veh51" type="veh_passenger" depart="104.64" departLane="best" from="439768850#0" to="835176554#0"/>
    <trip id="veh52" type="veh_passenger" depart="106.69" departLane="best" from="808190584#0" to="169267543#0"/>
    <trip id="veh53" type="veh_passenger" depart="108.74" departLane="best" from="458180182#0" to="196117083#0"/>
    <trip id="veh54" type="veh_passenger" depart="110.79" departLane="best" from="835176554#0" to="671208358#18"/>
    <trip id="veh55" type="veh_passenger" depart="112.84" departLane="best" from="195743342#3" to="46525065#0"/>
    <trip id="veh56" type="veh_passenger" depart="114.89" departLane="best" departSpeed="max" from="46522160#0" to="1106474773#0"/>
    <trip id="veh57" type="veh_passenger" depart="116.95" departLane="best" from="569345545#0" to="458177131#0"/>
    <trip id="veh58" type="veh_passenger" depart="119.00" departLane="best" from="618990022#11" to="458166897#25"/>
    <trip id="veh59" type="veh_passenger" depart="121.05" departLane="best" departSpeed="max" from="-421851201#2" to="743358443#0"/>
    <trip id="veh60" type="veh_passenger" depart="123.10" departLane="best" from="808190587#0" to="584971501"/>
    <trip id="veh61" type="veh_passenger" depart="125.15" departLane="best" from="196117039#0" to="1023238044"/>
    <trip id="veh62" type="veh_passenger" depart="127.20" departLane="best" from="808190584#3" to="812949647#9"/>
    <trip id="veh63" type="veh_passenger" depart="129.26" departLane="best" from="1030123278#0" to="438397345#0"/>
    <trip id="veh64" type="veh_passenger" depart="131.31" departLane="best" from="1025734022#0" to="5670874#0"/>
    <trip id="veh65" type="veh_passenger" depart="133.36" departLane="best" from="573228989#0" to="1061979012#0"/>
    <trip id="veh66" type="veh_passenger" depart="135.41" departLane="best" from="458166897#1" to="458180186#4"/>
    <trip id="veh67" type="veh_passenger" depart="137.46" departLane="best" departSpeed="max" from="194920158#0" to="671208358#3"/>
    <trip id="veh68" type="veh_passenger" depart="139.51" departLane="best" departSpeed="max" from="420904618#0" to="125480075#0"/>
    <trip id="veh69" type="veh_passenger" depart="141.57" departLane="best" from="458180199#10" to="541350711#3"/>
    <trip id="veh70" type="veh_passenger" depart="143.62" departLane="best" departSpeed="max" from="988977545#0" to="496986969#0"/>
    <trip id="veh71" type="veh_passenger" depart="145.67" departLane="best" from="420907903#0" to="458166897#10"/>
    <trip id="veh72" type="veh_passenger" depart="147.72" departLane="best" departSpeed="max" from="1080185968#0" to="1320234482#0"/>
    <trip id="veh73" type="veh_passenger" depart="149.77" departLane="best" from="1022822153#0" to="460585328#11"/>
    <trip id="veh74" type="veh_passenger" depart="151.82" departLane="best" from="1343181789#0" to="1308875366#2"/>
    <trip id="veh75" type="veh_passenger" depart="153.88" departLane="best" from="1027189508" to="46521993#0"/>
    <trip id="veh76" type="veh_passenger" depart="155.93" departLane="best" from="1343181788#0" to="710571390#0"/>
    <trip id="veh77" type="veh_passenger" depart="157.98" departLane="best" from="717625447#3" to="1027189508"/>
    <trip id="veh78" type="veh_passenger" depart="160.03" departLane="best" from="1376704198#0" to="497165756#3"/>
    <trip id="veh79" type="veh_passenger" depart="162.08" departLane="best" from="127693103#3" to="1061979015#0"/>
    <trip id="veh80" type="veh_passenger" depart="164.13" departLane="best" from="884400286#0" to="458180194#0"/>
    <trip id="veh82" type="veh_passenger" depart="168.24" departLane="best" from="671208357#0" to="1201651437#0"/>
    <trip id="veh83" type="veh_passenger" depart="170.29" departLane="best" from="1049888072" to="420892265#0"/>
    <trip id="veh84" type="veh_passenger" depart="172.34" departLane="best" departSpeed="max" from="420904618#0" to="420906755#0"/>
    <trip id="veh86" type="veh_passenger" depart="176.45" departLane="best" from="420892265#0" to="226041028#0"/>
    <trip id="veh87" type="veh_passenger" depart="178.50" departLane="best" from="727702633#0" to="1376935153#0"/>
    <trip id="veh88" type="veh_passenger" depart="180.55" departLane="best" from="1211049194#0" to="420902878#0"/>
    <trip id="veh89" type="veh_passenger" depart="182.60" departLane="best" from="420902878#0" to="195743166#0"/>
    <trip id="veh90" type="veh_passenger" depart="184.65" departLane="best" from="167922073#0" to="717634370#0"/>
    <trip id="veh91" type="veh_passenger" depart="186.70" departLane="best" from="421850829#0" to="670988060#3"/>
    <trip id="veh92" type="veh_passenger" depart="188.76" departLane="best" departSpeed="max" from="460067515#0" to="1022822152#0"/>
    <trip id="veh93" type="veh_passenger" depart="190.81" departLane="best" departSpeed="max" from="992603347" to="587038175#0"/>
    <trip id="veh94" type="veh_passenger" depart="192.86" departLane="best" from="964208970#0" to="717634370#0"/>
    <trip id="veh95" type="veh_passenger" depart="194.91" departLane="best" from="68674962#5" to="1136391283#3"/>
    <trip id="veh96" type="veh_passenger" depart="196.96" departLane="best" from="458166897#19" to="1267505843#0"/>
    <trip id="veh97" type="veh_passenger" depart="199.01" departLane="best" from="420892264#0" to="1024425029#0"/>
    <trip id="veh98" type="veh_passenger" depart="201.07" departLane="best" from="420496090#0" to="964208970#0"/>
    <trip id="veh99" type="veh_passenger" depart="203.12" departLane="best" departSpeed="max" from="194920158#0" to="5673497#0"/>
    <trip id="veh100" type="veh_passenger" depart="205.17" departLane="best" from="962626218#0" to="972926362#0"/>
    <trip id="veh101" type="veh_passenger" depart="207.22" departLane="best" departSpeed="max" from="460585328#0" to="525729009#0"/>
    <trip id="veh102" type="veh_passenger" depart="209.27" departLane="best" from="1135661892#0" to="195743336#6"/>
    <trip id="veh103" type="veh_passenger" depart="211.32" departLane="best" from="458180199#5" to="5670114#0"/>
    <trip id="veh104" type="veh_passenger" depart="213.38" departLane="best" from="1023238044" to="458180199#5"/>
    <trip id="veh106" type="veh_passenger" depart="217.48" departLane="best" from="1136391284#0" to="884400286#0"/>
    <trip id="veh107" type="veh_passenger" depart="219.53" departLane="best" from="1030119892#0" to="1198594030#0"/>
    <trip id="veh108" type="veh_passenger" depart="221.58" departLane="best" departSpeed="max" from="46482603" to="497251086#0"/>
    <trip id="veh109" type="veh_passenger" depart="223.63" departLane="best" from="1376704196#0" to="1051744778#0"/>
    <trip id="veh110" type="veh_passenger" depart="225.69" departLane="best" departSpeed="max" from="818182930#0" to="1376704198#6"/>
    <trip id="veh111" type="veh_passenger" depart="227.74" departLane="best" departSpeed="max" from="46482603" to="464516471#7"/>
    <trip id="veh112" type="veh_passenger" depart="229.79" departLane="best" from="-420899371" to="458180199#5"/>
    <trip id="veh113" type="veh_passenger" depart="231.84" departLane="best" from="458180192#0" to="808190577#0"/>
    <trip id="veh114" type="veh_passenger" depart="233.89" departLane="best" departSpeed="max" from="1272613981" to="511924978#1"/>
    <trip id="veh115" type="veh_passenger" depart="235.94" departLane="best" from="1376704198#0" to="397795464#0"/>
    <trip id="veh116" type="veh_passenger" depart="238.00" departLane="best" from="525729010#0" to="195743342#0"/>
    <trip id="veh117" type="veh_passenger" depart="240.05" departLane="best" from="198595461#9" to="-5670253#2"/>
    <trip id="veh118" type="veh_passenger" depart="242.10" departLane="best" from="1027189509#2" to="420904617"/>
    <trip id="veh119" type="veh_passenger" depart="244.15" departLane="best" departSpeed="max" from="992603347" to="976050707#0"/>
    <trip id="veh120" type="veh_passenger" depart="246.20" departLane="best" departSpeed="max" from="194920158#0" to="808190576"/>
    <trip id="veh121" type="veh_passenger" depart="248.25" departLane="best" from="808190588#0" to="686125781#5"/>
    <trip id="veh123" type="veh_passenger" depart="252.36" departLane="best" departSpeed="max" from="68674962#0" to="511699184#0"/>
    <trip id="veh124" type="veh_passenger" depart="254.41" departLane="best" from="46522160#7" to="812949648#0"/>
    <trip id="veh125" type="veh_passenger" depart="256.46" departLane="best" departSpeed="max" from="511699178#0" to="-1320290376#1"/>
    <trip id="veh126" type="veh_passenger" depart="258.51" departLane="best" from="671208358#6" to="195743342#0"/>
    <trip id="veh127" type="veh_passenger" depart="260.56" departLane="best" from="511924978#1" to="808190584#0"/>
    <trip id="veh128" type="veh_passenger" depart="262.62" departLane="best" from="1106471567#3" to="1049920718#0"/>
    <trip id="veh129" type="veh_passenger" depart="264.67" departLane="best" from="1059314985#0" to="458180187#3"/>
    <trip id="veh130" type="veh_passenger" depart="266.72" departLane="best" from="194926855#0" to="46443656#3"/>
    <trip id="veh131" type="veh_passenger" depart="268.77" departLane="best" from="5672760#0" to="1211612936"/>
    <trip id="veh132" type="veh_passenger" depart="270.82" departLane="best" from="497165756#0" to="186202420#0"/>
    <trip id="veh133" type="veh_passenger" depart="272.87" departLane="best" from="458166897#22" to="710571390#0"/>
    <trip id="veh134" type="veh_passenger" depart="274.93" departLane="best" from="68674962#29" to="1030123275#0"/>
    <trip id="veh135" type="veh_passenger" depart="276.98" departLane="best" from="-1320290376#1" to="569345537#6"/>
    <trip id="veh136" type="veh_passenger" depart="279.03" departLane="best" from="497165756#6" to="169267541#0"/>
    <trip id="veh137" type="veh_passenger" depart="281.08" departLane="best" from="420905130#0" to="-1320549615#1"/>
    <trip id="veh138" type="veh_passenger" depart="283.13" departLane="best" from="1027189510#0" to="686125782#6"/>
    <trip id="veh139" type="veh_passenger" depart="285.18" departLane="best" departSpeed="max" from="819074878" to="458180184#0"/>
    <trip id="veh140" type="veh_passenger" depart="287.24" departLane="best" departSpeed="max" from="68674962#0" to="458180199#2"/>
    <trip id="veh141" type="veh_passenger" depart="289.29" departLane="best" departSpeed="max" from="1127444736#0" to="1061979012#0"/>
    <trip id="veh142" type="veh_passenger" depart="291.34" departLane="best" from="196117039#0" to="68674962#32"/>
    <trip id="veh143" type="veh_passenger" depart="293.39" departLane="best" from="619280617#0" to="670988060#3"/>
    <trip id="veh144" type="veh_passenger" depart="295.44" departLane="best" departSpeed="max" from="818182930#0" to="125479721#0"/>
    <trip id="veh145" type="veh_passenger" depart="297.49" departLane="best" from="448686048#0" to="1049841322#0"/>
    <trip id="veh146" type="veh_passenger" depart="299.55" departLane="best" from="618990022#20" to="686125782#6"/>
    <trip id="veh148" type="veh_passenger" depart="303.65" departLane="best" from="1135661892#0" to="743358444#1"/>
    <trip id="veh149" type="veh_passenger" depart="305.70" departLane="best" departSpeed="max" from="733667933" to="962626218#0"/>
    <trip id="veh150" type="veh_passenger" depart="307.75" departLane="best" from="671208358#15" to="686125782#0"/>
    <trip id="veh151" type="veh_passenger" depart="309.80" departLane="best" departSpeed="max" from="-421851201#2" to="542258337#0"/>
    <trip id="veh152" type="veh_passenger" depart="311.86" departLane="best" from="226041033" to="743358445#2"/>
    <trip id="veh153" type="veh_passenger" depart="313.91" departLane="best" from="670988060#0" to="-388696206#2"/>
    <trip id="veh154" type="veh_passenger" depart="315.96" departLane="best" from="671208358#15" to="194926846#0"/>
    <trip id="veh155" type="veh_passenger" depart="318.01" departLane="best" departSpeed="max" from="619280607#0" to="1049920716#0"/>
    <trip id="veh156" type="veh_passenger" depart="320.06" departLane="best" from="808190577#0" to="670988060#0"/>
    <trip id="veh157" type="veh_passenger" depart="322.11" departLane="best" departSpeed="max" from="44165033" to="195743342#9"/>
    <trip id="veh158" type="veh_passenger" depart="324.17" departLane="best" from="619280617#0" to="1320234485#0"/>
    <trip id="veh159" type="veh_passenger" depart="326.22" departLane="best" departSpeed="max" from="-421851201#2" to="1201651437#3"/>
    <trip id="veh160" type="veh_passenger" depart="328.27" departLane="best" from="226041028#0" to="671208357#0"/>
    <trip id="veh161" type="veh_passenger" depart="330.32" departLane="best" from="963856064#0" to="195743166#4"/>
    <trip id="veh162" type="veh_passenger" depart="332.37" departLane="best" from="497258108#0" to="541331485#0"/>
    <trip id="veh163" type="veh_passenger" depart="334.42" departLane="best" departSpeed="max" from="966105510#0" to="458166897#7"/>
    <trip id="veh164" type="veh_passenger" depart="336.48" departLane="best" from="884400289#3" to="1049920718#0"/>
    <trip id="veh165" type="veh_passenger" depart="338.53" departLane="best" from="965833822#0" to="1167939119#0"/>
    <trip id="veh166" type="veh_passenger" depart="340.58" departLane="best" departSpeed="max" from="962829746#0" to="194920158#5"/>
    <trip id="veh167" type="veh_passenger" depart="342.63" departLane="best" from="1061623142#0" to="420892269#0"/>
    <trip id="veh168" type="veh_passenger" depart="344.68" departLane="best" from="569345480#0" to="196117039#0"/>
    <trip id="veh169" type="veh_passenger" depart="346.74" departLane="best" from="46522000#0" to="456409017#3"/>
    <trip id="veh170" type="veh_passenger" depart="348.79" departLane="best" from="420806145#0" to="458180197#0"/>
    <trip id="veh171" type="veh_passenger" depart="350.84" departLane="best" from="167922077#0" to="511699184#0"/>
    <trip id="veh172" type="veh_passenger" depart="352.89" departLane="best" from="-1136952921#1" to="717634370#0"/>
    <trip id="veh173" type="veh_passenger" depart="354.94" departLane="best" from="458180199#0" to="525729009#0"/>
    <trip id="veh174" type="veh_passenger" depart="356.99" departLane="best" from="1376704198#0" to="497165756#6"/>
    <trip id="veh175" type="veh_passenger" depart="359.05" departLane="best" from="-388696206#2" to="1027189507"/>
    <trip id="veh176" type="veh_passenger" depart="361.10" departLane="best" from="511924978#1" to="226041009#0"/>
    <trip id="veh177" type="veh_passenger" depart="363.15" departLane="best" departSpeed="max" from="198595461#0" to="618990022#14"/>
    <trip id="veh178" type="veh_passenger" depart="365.20" departLane="best" from="5672951#0" to="195743342#0"/>
    <trip id="veh179" type="veh_passenger" depart="367.25" departLane="best" from="1167939119#0" to="420496091#3"/>
    <trip id="veh180" type="veh_passenger" depart="369.30" departLane="best" from="420892265#0" to="195743336#3"/>
    <trip id="veh181" type="veh_passenger" depart="371.36" departLane="best" from="1080185969#0" to="420890028"/>
    <trip id="veh182" type="veh_passenger" depart="373.41" departLane="best" from="884400289#3" to="497251086#2"/>
    <trip id="veh183" type="veh_passenger" depart="375.46" departLane="best" departSpeed="max" from="818182930#0" to="464516471#2"/>
    <trip id="veh184" type="veh_passenger" depart="377.51" departLane="best" from="195743342#9" to="458180185#0"/>
    <trip id="veh185" type="veh_passenger" depart="379.56" departLane="best" from="-1087048475#1" to="195743301#0"/>
    <trip id="veh186" type="veh_passenger" depart="381.61" departLane="best" from="420906743#0" to="458180199#0"/>
    <trip id="veh187" type="veh_passenger" depart="383.67" departLane="best" departSpeed="max" from="511699178#0" to="420906753#0"/>
    <trip id="veh188" type="veh_passenger" depart="385.72" departLane="best" from="420908138#0" to="1267505843#0"/>
    <trip id="veh189" type="veh_passenger" depart="387.77" departLane="best" from="458166897#1" to="686125782#0"/>
    <trip id="veh190" type="veh_passenger" depart="389.82" departLane="best" from="619280617#0" to="1136460177#0"/>
    <trip id="veh191" type="veh_passenger" depart="391.87" departLane="best" from="497165753#9" to="226041023"/>
    <trip id="veh192" type="veh_passenger" depart="393.92" departLane="best" from="671208358#9" to="5670253#0"/>
    <trip id="veh193" type="veh_passenger" depart="395.98" departLane="best" from="528748997#0" to="1320234482#0"/>
    <trip id="veh194" type="veh_passenger" depart="398.03" departLane="best" from="125479721#0" to="-420904618#1"/>
    <trip id="veh195" type="veh_passenger" depart="400.08" departLane="best" from="1376951512" to="420907908#0"/>
    <trip id="veh196" type="veh_passenger" depart="402.13" departLane="best" from="68674962#8" to="1027189509#2"/>
    <trip id="veh197" type="veh_passenger" depart="404.18" departLane="best" from="420892275#0" to="-46520921#4"/>
    <trip id="veh198" type="veh_passenger" depart="406.23" departLane="best" from="1222356565#0" to="505778913#0"/>
    <trip id="veh199" type="veh_passenger" depart="408.29" departLane="best" from="458166897#4" to="569345515#6"/>
    <trip id="veh200" type="veh_passenger" depart="410.34" departLane="best" from="569345537#6" to="5671574#0"/>
    <trip id="veh201" type="veh_passenger" depart="412.39" departLane="best" from="1052631409#0" to="420892262"/>
    <trip id="veh202" type="veh_passenger" depart="414.44" departLane="best" from="1201651432#0" to="846142552#0"/>
    <trip id="veh203" type="veh_passenger" depart="416.49" departLane="best" from="458180190#0" to="1022822152#0"/>
    <trip id="veh204" type="veh_passenger" depart="418.54" departLane="best" from="448686048#0" to="541350711#3"/>
    <trip id="veh205" type="veh_passenger" depart="420.60" departLane="best" from="525729008#0" to="1027189509#2"/>
    <trip id="veh206" type="veh_passenger" depart="422.65" departLane="best" departSpeed="max" from="46482603" to="814278019#0"/>
    <trip id="veh207" type="veh_passenger" depart="424.70" departLane="best" departSpeed="max" from="818182930#0" to="464516471#10"/>
    <trip id="veh208" type="veh_passenger" depart="426.75" departLane="best" from="5672951#0" to="455678353#0"/>
    <trip id="veh209" type="veh_passenger" depart="428.80" departLane="best" departSpeed="max" from="68674962#0" to="458180185#0"/>
    <trip id="veh210" type="veh_passenger" depart="430.85" departLane="best" departSpeed="max" from="818182930#0" to="5669841"/>
    <trip id="veh211" type="veh_passenger" depart="432.91" departLane="best" from="458166897#1" to="525729009#0"/>
    <trip id="veh212" type="veh_passenger" depart="434.96" departLane="best" from="167922070#0" to="46522160#3"/>
    <trip id="veh213" type="veh_passenger" depart="437.01" departLane="best" from="573228989#0" to="458166897#16"/>
    <trip id="veh214" type="veh_passenger" depart="439.06" departLane="best" from="496993762#0" to="194926854#0"/>
    <trip id="veh215" type="veh_passenger" depart="441.11" departLane="best" from="1030119891#0" to="195743183#6"/>
    <trip id="veh216" type="veh_passenger" depart="443.16" departLane="best" from="194926855#0" to="198924552#0"/>
    <trip id="veh217" type="veh_passenger" depart="445.22" departLane="best" from="458180199#2" to="1061979015#0"/>
    <trip id="veh218" type="veh_passenger" depart="447.27" departLane="best" from="1352944235#0" to="505317789#0"/>
    <trip id="veh219" type="veh_passenger" depart="449.32" departLane="best" from="420892269#0" to="458180182#0"/>
    <trip id="veh220" type="veh_passenger" depart="451.37" departLane="best" from="420894338#0" to="458180194#0"/>
    <trip id="veh221" type="veh_passenger" depart="453.42" departLane="best" from="420899373" to="710571390#0"/>
    <trip id="veh222" type="veh_passenger" depart="455.47" departLane="best" from="464516471#10" to="505582406#0"/>
    <trip id="veh223" type="veh_passenger" depart="457.53" departLane="best" from="710571392#0" to="5671115#5"/>
    <trip id="veh224" type="veh_passenger" depart="459.58" departLane="best" from="420496091#0" to="-1272613981"/>
    <trip id="veh225" type="veh_passenger" depart="461.63" departLane="best" from="-375165665" to="5670348"/>
    <trip id="veh226" type="veh_passenger" depart="463.68" departLane="best" from="-587355676#1" to="835176554#0"/>
    <trip id="veh227" type="veh_passenger" depart="465.73" departLane="best" from="420899372#0" to="5670029#7"/>
    <trip id="veh228" type="veh_passenger" depart="467.78" departLane="best" from="458180200#0" to="46334594#6"/>
    <trip id="veh229" type="veh_passenger" depart="469.84" departLane="best" from="420907902#0" to="497165757#0"/>
    <trip id="veh230" type="veh_passenger" depart="471.89" departLane="best" from="273895449#0" to="497251086#2"/>
    <trip id="veh231" type="veh_passenger" depart="473.94" departLane="best" from="420892265#0" to="1135661892#0"/>
    <trip id="veh232" type="veh_passenger" depart="475.99" departLane="best" from="455125048#0" to="1061979012#0"/>
    <trip id="veh233" type="veh_passenger" depart="478.04" departLane="best" from="496989355#3" to="-46520921#6"/>
    <trip id="veh234" type="veh_passenger" depart="480.09" departLane="best" from="420890028" to="458180192#0"/>
    <trip id="veh236" type="veh_passenger" depart="484.20" departLane="best" from="1106471568#0" to="420906743#0"/>
    <trip id="veh237" type="veh_passenger" depart="486.25" departLane="best" from="1022813500" to="375165666#0"/>
    <trip id="veh238" type="veh_passenger" depart="488.30" departLane="best" from="127693103#0" to="226041006#3"/>
    <trip id="veh239" type="veh_passenger" depart="490.35" departLane="best" from="569345544#0" to="375165666#0"/>
    <trip id="veh240" type="veh_passenger" depart="492.40" departLane="best" from="569345537#6" to="584971501"/>
    <trip id="veh241" type="veh_passenger" depart="494.46" departLane="best" from="167922075#0" to="1030119893#0"/>