<?xml version="1.0" encoding="UTF-8"?>

<!-- generated on 2025-05-18 23:09:11.598652 by randomTrips.py v1_22_0+0002-63e50f52594
<configuration>
    <net-file value="osm.net.xml"/>
    <output-trip-file value="high_traffic.trips.xml"/>
    <prefix value="veh"/>
    <min-distance value="800.0"/>
    <validate value="True"/>
    <end value="2.0"/>
    <insertion-density value="5000.0"/>
</configuration>
-->

<!-- generated on 2025-05-18 23:09:11 by Eclipse SUMO duarouter Version 1.22.0
<duarouterConfiguration xmlns:xsi="http://www.w3.org/2001/XMLSchema-instance" xsi:noNamespaceSchemaLocation="http://sumo.dlr.de/xsd/duarouterConfiguration.xsd">

    <input>
        <net-file value="osm.net.xml"/>
        <route-files value="high_traffic.trips.xml"/>
    </input>

    <output>
        <output-file value="high_traffic.trips.xml.tmp"/>
        <alternatives-output value="NUL"/>
        <write-trips value="true"/>
    </output>

    <time>
        <begin value="0.0"/>
        <end value="2.0"/>
    </time>

    <report>
        <no-warnings value="true"/>
        <ignore-errors value="true"/>
        <no-step-log value="true"/>
    </report>

</duarouterConfiguration>
-->

<routes xmlns:xsi="http://www.w3.org/2001/XMLSchema-instance" xsi:noNamespaceSchemaLocation="http://sumo.dlr.de/xsd/routes_file.xsd">
    <trip id="veh3" depart="0.05" from="-132312833#1" to="1052978843"/>
    <trip id="veh9" depart="0.16" from="1053256432" to="1087341446"/>
    <trip id="veh10" depart="0.18" from="-320154334" to="1052978891"/>
    <trip id="veh11" depart="0.20" from="132312700" to="1052978864"/>
    <trip id="veh14" depart="0.25" from="-982046992" to="62101832"/>
    <trip id="veh15" depart="0.27" from="-906679712" to="132312700"/>
    <trip id="veh17" depart="0.31" from="1053256433" to="-135409711"/>
    <trip id="veh19" depart="0.34" from="978155084" to="230743878"/>
    <trip id="veh20" depart="0.36" from="32935452" to="1053256445#2"/>
    <trip id="veh21" depart="0.38" from="-217459577#2" to="132312833#0"/>
    <trip id="veh22" depart="0.40" from="998255417" to="307104423#1"/>
    <trip id="veh23" depart="0.41" from="995957802#1" to="904178717"/>
    <trip id="veh24" depart="0.43" from="-1087341446" to="62101770#0"/>
    <trip id="veh26" depart="0.47" from="223430126#2" to="984743043"/>
    <trip id="veh31" depart="0.56" from="1103284986" to="-203280257#2"/>
    <trip id="veh32" depart="0.58" from="925960106" to="982046992"/>
    <trip id="veh33" depart="0.59" from="-32928501#0" to="232369123#1"/>
    <trip id="veh34" depart="0.61" from="-230743878" to="62208280#1"/>
    <trip id="veh47" depart="0.84" from="221938522" to="904178717"/>
    <trip id="veh48" depart="0.86" from="32928501#2" to="62101770#0"/>
    <trip id="veh49" depart="0.88" from="-903156784" to="995957794"/>
    <trip id="veh51" depart="0.92" from="398302096#0" to="458129468"/>
    <trip id="veh53" depart="0.95" from="1052978873#0" to="62081080"/>
    <trip id="veh54" depart="0.97" from="1103367367" to="62208212"/>
    <trip id="veh56" depart="1.01" from="61908083#0" to="-1053256433"/>
    <trip id="veh62" depart="1.11" from="65372204#1" to="904178717"/>
    <trip id="veh64" depart="1.15" from="186621452#0" to="458129468"/>
    <trip id="veh66" depart="1.19" from="1173061871" to="980069999"/>
    <trip id="veh67" depart="1.20" from="-132312833#0" to="-995962376"/>
    <trip id="veh68" depart="1.22" from="1173061865" to="906208235#0"/>
    <trip id="veh73" depart="1.31" from="61908083#0" to="232369110#1"/>
    <trip id="veh76" depart="1.37" from="1052978852" to="-132262203"/>
    <trip id="veh77" depart="1.38" from="61908083#0" to="-1053256432"/>
    <trip id="veh82" depart="1.47" from="645747408" to="307104419#1"/>
    <trip id="veh84" depart="1.51" from="-28093567" to="1087341444"/>
    <trip id="veh85" depart="1.53" from="186621452#1" to="320154337#1"/>
    <trip id="veh87" depart="1.56" from="132262194#1" to="62208260#0"/>
    <trip id="veh90" depart="1.62" from="217459570" to="-132312833#0"/>
    <trip id="veh93" depart="1.67" from="-132312833#1" to="61908083#0"/>
    <trip id="veh94" depart="1.69" from="62208168" to="886713373"/>
    <trip id="veh96" depart="1.73" from="983017495#1" to="1052978843"/>
    <trip id="veh98" depart="1.76" from="-62207691" to="62029498#1"/>
    <trip id="veh101" depart="1.82" from="249946390#3" to="1173061864"/>
    <trip id="veh102" depart="1.83" from="903156785" to="883253027#0"/>
    <trip id="veh103" depart="1.85" from="1087340313#0" to="79488852"/>
    <trip id="veh105" depart="1.89" from="132312836" to="-132312833#0"/>
    <trip id="veh106" depart="1.91" from="904178715" to="-982046992"/>
    <trip id="veh107" depart="1.92" from="-1087341446" to="983017495#1"/>
    <trip id="veh108" depart="1.94" from="62030615" to="61908083#1"/>
    <trip id="veh109" depart="1.96" from="-36333654#2" to="1052978877#0"/>
</routes>
